data_image0
_chemical_formula_structural       Cl2PuClNaCl2PuCl3NaCl2NaClNa2Cl3NaClPuClPuCl2NaClNaClNaCl2NaPuCl3PuCl6NaCl3NaCl2NaClPuCl2NaCl2Na2Cl3NaPuClNaClNaPuCl2PuCl3Na2ClNaCl2NaCl3PuClPuCl3NaClNaCl5PuCl3NaClNa2Cl2NaCl2PuClNaCl4NaCl2PuClNaCl3NaCl2Na2ClPuCl6PuClNaCl3PuCl3NaCl3Na3Cl2NaClPuCl2NaClNaClPuCl4PuNaCl2PuCl4PuCl2PuCl2NaCl3PuCl3PuClPuClNaClNaCl4PuClNa2Cl2PuNaCl2Na2ClPuClPuCl4PuNaCl3NaCl2PuCl2NaCl2PuClNaCl3NaPuCl5NaCl2NaPuCl3Pu2ClNaCl7PuCl2NaClNaCl2NaClNaCl4NaClNaCl2PuNaPuNaCl2Na2Cl4NaCl2Pu2ClNaCl3NaCl2NaClNaCl3PuCl2PuCl3PuCl2NaClNaCl3NaCl2NaCl2PuCl4PuNaClNaClNaCl2NaClPuClNaClPuClNaCl3PuNaClNaClPuClNaClNaClNaClPuCl2NaCl2Na2Cl2NaClPuCl2NaCl2NaClNaClNa2Cl2NaCl3NaClNaCl2PuCl2NaClNa2Cl3NaClPuClNaClNaCl2PuClNaCl3NaClNaClNaCl3Na2Cl3PuCl2PuCl3NaClNa5Cl3Na2ClNaClNaClNaPuCl2NaCl2Na2Cl2NaClNaClNaClPuCl2Na2Cl3NaCl2NaCl3PuCl4Na2Cl2PuCl4NaClNa2Cl2Na2ClNaCl2NaCl2Na2ClNa2ClPuCl5PuNaCl6PuCl2Na2ClNaCl2NaCl2NaCl3Na3ClPuClNaPuCl2NaClNaCl2Na3Cl2PuClNaCl2NaClNaCl3PuClNaClNaPuCl4NaCl3NaClNa2Cl2PuCl2NaCl3NaClNaClPuCl2NaClNaClPuCl3NaPuCl4Na3Cl3NaPuCl2NaCl5PuClNaClNaCl4NaCl2Na2Cl2NaCl2PuCl2Na2ClNaCl2NaCl2NaClNaClPuCl2NaPuCl2NaClPuClNaCl2Pu2Cl2NaCl3NaCl2NaClPuCl2NaCl2NaClNaCl3Na2Cl2PuCl2NaPuClNaCl3PuCl2PuCl2NaCl4NaCl4NaPuCl2PuCl4NaClNaClNaCl2PuCl2PuNaCl4NaClNa3ClNaCl2PuCl2NaCl2Na2Cl2PuCl3NaCl3NaCl2NaPuClNaClPuCl3PuNaClNaClNaCl3NaCl2PuNa2Cl3PuNaCl3NaCl3Na2ClPuClNaClNaClNaCl4Na3ClNaCl2PuClNaClPuCl2NaCl2NaCl5NaCl2PuCl3PuClNa2Cl3NaClPuCl2NaCl3NaPuClPuCl2NaCl2NaCl2PuCl2NaClPuCl2NaCl2PuNaCl3Na2Cl2NaClPuClNa2Cl4PuCl2NaCl2NaCl3PuCl3Na3Cl2NaClNaCl4NaCl2PuClNaClPuClNaCl4NaClNaClPuClNa2Cl2NaCl3PuCl2PuClNaClNaClNaCl2NaClPuCl3NaCl2Na2ClNaCl2PuNaCl2NaCl2PuNaCl2PuClPuClNaCl5PuCl3NaClPu2Cl3NaCl2PuCl2NaCl2PuClNa2ClNaCl2PuCl4Na2Cl3NaCl4PuCl3NaClNaCl4PuCl2PuCl3NaCl3PuClNa2Cl2PuCl3NaClNaCl4Na2PuCl2NaClNaClNaClNaCl2NaPuClNa2Cl2NaClPuClNaClPuCl5NaClNaPuClNaCl3NaClNaCl2PuClNaCl2PuClPuClPuClNaCl3PuClNaClNaClNaCl2Na2Cl2PuCl3NaCl2NaCl2NaClNaCl2Na2ClPuCl3NaCl2Na2Cl2NaClNa2Cl5NaCl3PuNaCl2NaClNaClNaCl2PuClNaPuCl3NaCl2Na2Cl2NaClNaClNaClNaCl3NaClNaCl2PuClNaClNaCl2Na2ClNaClNaCl4PuNaClNaPuCl3NaClPuCl3NaClNaClNaCl2Na2ClNaCl2NaClNaCl3PuCl3NaCl2PuNaPuCl2Na3Cl3PuCl3NaCl2PuCl2NaCl2PuCl4NaPuClNaClNa3ClNa2ClNaCl2PuNaPuCl2Na3Cl3NaCl2PuNaCl2NaClNaCl2NaCl2PuNa2Cl3NaClNaCl2NaCl2NaCl2Na2ClNaCl6NaPuCl3NaCl3PuCl2NaCl2NaCl2NaClNaCl2NaCl2NaClNa2Cl4PuClNaCl3NaClNaClPuClPuCl3PuCl5PuClNaCl2PuCl3PuNaCl4PuNa2Cl2NaCl2Na3ClNa2Cl3NaClNa4Cl2PuCl2NaClNaClPuNaCl2NaCl3PuCl2PuCl2NaClPuNaCl4PuCl2Na3ClNaClNaCl2PuCl5NaCl3Na2Cl2Na2Cl2PuCl3PuNa2Cl2PuCl6NaCl2NaClNaClNa3Cl2Na2Cl2Na3Cl2NaClPuCl2NaCl3Na2Cl5PuClNaCl2NaCl3PuClNaClNaClNaCl3NaClNaCl3NaCl2NaClNaClPuCl3NaCl5Na2ClNa2ClNaClPuCl3NaClNaClNaCl3Na2Cl2PuCl2PuCl2NaCl4Na2PuClNaClNaPuCl4Na2ClNaClNaClPuCl3Na2Cl2NaCl2PuNaCl3NaClNaCl3Na2Cl2NaCl3PuClNaClPuCl3NaClNaCl3NaCl2NaCl3PuClNa2ClNaClNaClPuClNaCl2NaCl3Na4ClPuClNaCl2NaClPuCl3NaClNaClNaCl4NaCl2NaClNaCl4PuNa2ClNaCl2NaCl2PuNaClNa2Cl2NaCl2PuCl2NaCl2Na4ClNaClNaClPuCl2Na2Cl2NaCl2NaCl3PuCl4Pu2Cl2PuCl2Na2Cl2PuNaCl2NaClNa2Cl3Pu2ClNa2Cl3NaCl2PuClNaPuCl2NaClNaCl4NaClNaClNaClPuClPuClNaCl2NaClPuCl3NaClPuNaCl4PuCl4NaClNaCl5PuCl2Na2ClNa2Cl2NaCl2NaCl2NaCl2Na2ClNaCl2PuClNa2Cl2Na2Cl3PuClNaCl2PuClNaClNaPuCl3NaCl2Na2Cl3PuClNaClNaClNaClNaCl2NaCl3PuClNaPuNaClNaCl2Na4ClNaClPuClNaClNa2ClNaClPuCl4PuClPuCl6PuClNa2Cl3NaClPuCl2NaClPuNaCl3NaClNaClNaClNaCl2NaCl2Na2Cl2PuCl5PuCl2NaCl2NaPuNaCl2Na2Cl4PuCl2NaPuCl2NaCl2NaClPuCl4NaCl2PuClPuNaCl5NaCl2NaCl3NaClNaCl2NaClPuCl2PuNaCl2PuCl2NaCl2NaCl3Pu2ClNaCl4NaCl2NaClNaPuCl2NaCl2NaClNaCl3NaClPuCl2Na2Cl4Na2Cl2PuCl2NaClNaClNaCl5PuClNaPuCl5Na3Cl2PuClNaClPuCl2NaCl5NaCl2PuNaCl2NaCl2PuCl2Na2PuClNaClNaClNaCl3PuClNaCl3PuCl2NaClNa3Cl2NaCl3NaCl4Na2PuCl2NaClPuCl3NaClPuClNaCl2NaClPuClNaCl2NaCl4NaClPuCl3PuCl2PuClPuCl3NaClNaClNaCl3PuClNaCl2NaCl2Na2ClNaCl3NaClNaClNa2ClNa2ClNaCl2PuClPuCl2NaClPuClNaCl3PuCl3PuCl3PuCl2NaClNaCl3NaPuCl3NaCl4NaCl3Na3Cl2NaClNaClNaClNaCl2PuNa2Cl2PuCl2Na2Cl3NaClNa2Cl6PuCl4NaClNa2Cl5NaCl3PuNaCl2NaClNa2Cl2NaPuClPuNaClPuCl2NaClPuClNaCl3NaCl2Na2ClNaCl3NaClNaCl2Na2Cl4PuClPuCl4PuNaClNaCl2PuCl3Na2Cl3Na3Cl3PuClNaCl2Na2ClNaClNaClNa2Cl3NaPuNaCl3NaPuCl3NaCl2NaCl2PuClNaCl3NaCl2NaCl2NaClNaClPuCl2Na2Cl2NaClPuCl2NaClNaClNaClNaCl2NaClNa2Cl3NaCl2Na2PuClNa3ClPuCl3NaPuClNaClNa2ClNaCl5NaCl4NaClNaClNaCl2NaClNa2Cl2PuClNa3Cl5PuNaCl2NaCl5NaCl3NaCl5PuClNa2Cl2PuCl4PuNaCl3NaCl2PuClPuClNaClPuCl2PuClNaCl4PuClNaClNaClNaCl2PuCl2PuNaCl4NaPuClNaCl2Na2PuCl2NaCl2NaClNaClNaCl2PuNaClNaClNaCl3NaCl2NaCl2NaCl4NaClNaCl3NaCl2PuCl2NaCl2NaPuCl3NaClPuCl2NaClNaCl2NaCl3NaCl2PuCl2PuCl4NaClNaCl2PuCl4PuNaCl2Na2ClNaCl2NaPuCl3NaClPuNaCl3NaClNa2ClNaCl2Na2PuCl2NaCl4NaClPuClPuCl2NaCl2PuCl2NaClPu2ClNaCl2NaClNaClNaClNaClNaCl6NaCl4NaCl2NaClNaClPuCl6Pu2Cl2PuClPuCl3NaPuCl3PuCl3PuClNaClNaClPuClNaClNaClNa2Cl2NaCl3NaClNa2PuCl3PuNaCl2NaPuCl4Na2ClNaCl2PuNaCl5NaClNa2ClPuCl2NaClNaCl2Na2Cl3PuClNaCl2NaClNaCl3Na2Cl4PuCl2NaCl2PuCl2NaCl2PuCl3NaClNaClPuNaClPuCl4PuNa2Cl3PuCl2NaClNaClNaCl4Na2ClNa2Cl6NaPuNa2ClNaCl2NaClNaCl3NaClNaClNaClNaClNaClNaCl3PuCl3NaClNa3ClNa2Cl2NaClNaClNaClNaCl2Na2Cl2NaClPuCl2NaClNaCl3PuCl2NaCl3NaClNaClNaCl2NaClNaCl5PuCl4NaClPuClNaCl4NaCl3PuClNaClNaClNaPuCl3NaCl3NaCl2NaClPuCl2NaCl4Na2ClNa2Cl2Na2Cl2NaCl2NaPuCl3NaClNaClPuCl5PuCl3NaCl2NaPuClNaCl3Na2Cl2PuCl2NaClNaPuClNa2Cl2NaClNa2Cl2NaPuCl2NaClPuNaPuCl4PuCl2PuNaCl2NaCl2Pu2Cl2NaClNa2ClNaClNa2Cl2NaCl3NaClNa2Cl3Na2Cl2PuCl5NaCl3NaClNaCl2PuCl4NaCl2NaClPuCl2Na3Cl2PuCl2PuCl2NaClPuClNaClNaClNaCl3PuCl3NaClNaClNa2ClNaClNaCl6Na2PuCl2NaClNaCl2NaCl3NaPuCl2NaCl2PuCl3PuClNa2Cl2NaCl2NaPuNaClNaClNaCl2PuNaClNa2ClNaCl2Na3Cl3PuCl3NaCl
_chemical_formula_sum              "Cl2176 Pu384 Na1024"
_cell_length_a       48.3642500793
_cell_length_b       48.3642500793
_cell_length_c       48.3642500793
_cell_angle_alpha    90.0
_cell_angle_beta     90.0
_cell_angle_gamma    90.0

_space_group_name_H-M_alt    "P 1"
_space_group_IT_number       1

loop_
  _space_group_symop_operation_xyz
  'x, y, z'

loop_
  _atom_site_type_symbol
  _atom_site_label
  _atom_site_symmetry_multiplicity
  _atom_site_fract_x
  _atom_site_fract_y
  _atom_site_fract_z
  _atom_site_occupancy
  Cl  Cl1       1.0  0.935558804815751  0.09544467230301798  0.014572974849074742  1.0000
  Cl  Cl2       1.0  0.0548514656104515  0.09135590839836194  0.04400812576459174  1.0000
  Pu  Pu1       1.0  0.10883472795234922  0.07792842841190085  0.06229787487782357  1.0000
  Cl  Cl3       1.0  0.14628945943334687  0.05837845092957276  0.025680538785642974  1.0000
  Na  Na1       1.0  0.19921098712794202  0.07364179107833174  0.03871682072873571  1.0000
  Cl  Cl4       1.0  0.21137720492383918  0.033377132848192485  0.9939035531654776  1.0000
  Cl  Cl5       1.0  0.30492770953378234  0.06338090624736029  0.9843944633057996  1.0000
  Pu  Pu2       1.0  0.26842140586723007  0.030747297798719906  0.014023664150440117  1.0000
  Cl  Cl6       1.0  0.31509430984690184  0.0037838072481211657  0.030104260845825837  1.0000
  Cl  Cl7       1.0  0.36580118519344285  0.05505099315371285  0.03927983990003171  1.0000
  Cl  Cl8       1.0  0.43471365658574684  0.9725137869992745  0.014009955677778742  1.0000
  Na  Na2       1.0  0.5031650436034677  0.12358570618172832  0.05699023546277828  1.0000
  Cl  Cl9       1.0  0.5204029827554867  0.05893630099353038  0.0013384576395552566  1.0000
  Cl  Cl10      1.0  0.5132117206263369  0.07851026313390855  0.09266824136942906  1.0000
  Na  Na3       1.0  0.5374155488275524  0.05463870515240391  0.05030306468126699  1.0000
  Cl  Cl11      1.0  0.6980693372613678  0.05074988231959628  0.08696630244661237  1.0000
  Na  Na4       1.0  0.7221036187418844  0.03222566249749567  0.025888957193526328  1.0000
  Na  Na5       1.0  0.7393167461786793  0.08491726829767982  0.0967423250092441  1.0000
  Cl  Cl12      1.0  0.6601239541118114  0.04027561673769662  0.011432866199586963  1.0000
  Cl  Cl13      1.0  0.7621766064719167  0.038892570378240524  0.12577926857184188  1.0000
  Cl  Cl14      1.0  0.7882165015997236  0.017970194897573386  0.039414650219416585  1.0000
  Na  Na6       1.0  0.863786783243857  0.021994138196206183  0.038564435444400365  1.0000
  Cl  Cl15      1.0  0.9115555379792646  0.08245511909026418  0.08533141717763057  1.0000
  Pu  Pu3       1.0  0.9621941811089391  0.0673964755921049  0.059483399314224174  1.0000
  Cl  Cl16      1.0  0.12496441049102017  0.12136712531209701  0.0184943837345435  1.0000
  Pu  Pu4       1.0  0.15158717416230247  0.17481693577667426  0.021475986876607293  1.0000
  Cl  Cl17      1.0  0.17681200444499415  0.16491664787362795  0.9767503873738081  1.0000
  Cl  Cl18      1.0  0.1843338826795065  0.14098306060406277  0.048524684992571836  1.0000
  Na  Na7       1.0  0.2329489236683532  0.15964850043864787  0.027392340371819836  1.0000
  Cl  Cl19      1.0  0.24729836563968716  0.11238921292251065  0.011017538763163063  1.0000
  Na  Na8       1.0  0.25222555875462793  0.13209074863199996  0.946965990890081  1.0000
  Cl  Cl20      1.0  0.33382508719824394  0.21657112397744016  0.9629364649227299  1.0000
  Na  Na9       1.0  0.41924768742932345  0.10030011820810207  0.05416748932743748  1.0000
  Cl  Cl21      1.0  0.40679634167264145  0.16976568408561243  0.9850912589750128  1.0000
  Cl  Cl22      1.0  0.45905601686363084  0.12855528597684376  0.020652279284022277  1.0000
  Na  Na10      1.0  0.5621797082642479  0.16739926674610356  0.9954604882957967  1.0000
  Pu  Pu5       1.0  0.6568467400592805  0.08046976834374042  0.05084478713032888  1.0000
  Cl  Cl23      1.0  0.6051866813195428  0.10019735635421516  0.07795716864870222  1.0000
  Cl  Cl24      1.0  0.766977673367801  0.13570354113293825  0.051972893115856234  1.0000
  Cl  Cl25      1.0  0.684687552183778  0.12314385088644386  0.022384302418106863  1.0000
  Pu  Pu6       1.0  0.7418888939902554  0.13131021342390506  0.003135932010758372  1.0000
  Cl  Cl26      1.0  0.7902159123182079  0.15026987884819054  0.9717528943990654  1.0000
  Cl  Cl27      1.0  0.849695796639442  0.11716794927469322  0.0671340917036089  1.0000
  Cl  Cl28      1.0  0.8536470622888971  0.1928296207365691  0.9955555998708228  1.0000
  Cl  Cl29      1.0  0.9018562249695344  0.16913443269744985  0.092700289834927  1.0000
  Cl  Cl30      1.0  0.006078704818496279  0.13584600173118394  0.01662287740804015  1.0000
  Cl  Cl31      1.0  0.9676072703136872  0.11557669127164732  0.09201114444457459  1.0000
  Na  Na11      1.0  0.2278087633310713  0.24827636074810805  0.03038091147057576  1.0000
  Cl  Cl32      1.0  0.17853124954573826  0.22478173407371785  0.005951193278673201  1.0000
  Cl  Cl33      1.0  0.2789663848375188  0.23495660495857873  0.05749887562487455  1.0000
  Cl  Cl34      1.0  0.2380580693616048  0.18262745696496158  0.08154452914153572  1.0000
  Na  Na12      1.0  0.30118114053492684  0.20368081762558318  0.0176413156122765  1.0000
  Cl  Cl35      1.0  0.30777278621282494  0.16835203661071316  0.06315863463181007  1.0000
  Cl  Cl36      1.0  0.361734131539608  0.19983500176583086  0.023727236504617156  1.0000
  Na  Na13      1.0  0.38957907894997607  0.165376905191037  0.9223114165289591  1.0000
  Cl  Cl37      1.0  0.42296944471295483  0.24358281128486192  0.01958394885575591  1.0000
  Pu  Pu7       1.0  0.4442620316611965  0.18295517837021466  0.01964907960821946  1.0000
  Cl  Cl38      1.0  0.5177956850140094  0.18614534465516727  0.03236295398840296  1.0000
  Cl  Cl39      1.0  0.5995151367478758  0.2267935506498141  0.022415523826430656  1.0000
  Na  Na14      1.0  0.6421127165019712  0.1685184818670089  0.02681195299986689  1.0000
  Cl  Cl40      1.0  0.6226334524080321  0.15322412707421965  0.1264537336973533  1.0000
  Cl  Cl41      1.0  0.7162439186631004  0.181273977899481  0.9886620783243635  1.0000
  Na  Na15      1.0  0.763169075080885  0.1852132512199112  0.08284735095510021  1.0000
  Na  Na16      1.0  0.8279276518160694  0.22773639582833405  0.038129403370802575  1.0000
  Cl  Cl42      1.0  0.8194089629224245  0.18189406401579267  0.07153713733443824  1.0000
  Cl  Cl43      1.0  0.8805987879511937  0.23153258825763798  0.03830556654889446  1.0000
  Cl  Cl44      1.0  0.9467592265965459  0.2258837877582598  0.030720211676266814  1.0000
  Na  Na17      1.0  0.9637841985262237  0.2269196768688705  0.08661046109743852  1.0000
  Pu  Pu8       1.0  0.9756441984033954  0.1824961616385668  0.020394940444288523  1.0000
  Cl  Cl45      1.0  0.997706632485397  0.19219733552693882  0.06952304635111312  1.0000
  Na  Na18      1.0  0.12612229053481658  0.23666654566611375  0.9921770713144598  1.0000
  Cl  Cl46      1.0  0.05982435363426351  0.3224675245543625  0.042802896697575796  1.0000
  Na  Na19      1.0  0.06873754879997337  0.28934595237297933  0.0016519329849837786  1.0000
  Pu  Pu9       1.0  0.12778839721212218  0.355113538860615  0.9938001710187101  1.0000
  Cl  Cl47      1.0  0.11764743567140107  0.28802886382316095  0.008697746771846326  1.0000
  Cl  Cl48      1.0  0.1966719216033313  0.32522576023012034  0.042224370204264665  1.0000
  Pu  Pu10      1.0  0.24095070182816045  0.3518983540961446  0.0634146088272065  1.0000
  Cl  Cl49      1.0  0.2715497496284157  0.3281101221249346  0.10193521024137742  1.0000
  Cl  Cl50      1.0  0.2788919496918461  0.34381800550479397  0.020528200031471877  1.0000
  Cl  Cl51      1.0  0.28111880113321885  0.2680885153546386  0.9953529708631584  1.0000
  Na  Na20      1.0  0.32448761170220014  0.32296375885884665  0.9941723467470732  1.0000
  Na  Na21      1.0  0.32531880416221115  0.26706089681576933  0.06365176747189122  1.0000
  Cl  Cl52      1.0  0.35742929894820774  0.2803661791047512  0.03259515029004285  1.0000
  Na  Na22      1.0  0.434171934136685  0.25108835514018507  0.08380053434829689  1.0000
  Cl  Cl53      1.0  0.499033893018637  0.25826307612585203  0.03267723571457627  1.0000
  Cl  Cl54      1.0  0.532343620707137  0.265319941464204  0.09379490000490165  1.0000
  Na  Na23      1.0  0.5495981010026387  0.27292886746629463  0.02226458589215006  1.0000
  Cl  Cl55      1.0  0.6507637345434787  0.2794729573566797  0.027335273426804155  1.0000
  Cl  Cl56      1.0  0.6817887167884162  0.20879678654052147  0.06128472983950172  1.0000
  Cl  Cl57      1.0  0.8983557054799857  0.296324247279788  0.03890580329302677  1.0000
  Pu  Pu11      1.0  0.7644199990567722  0.2852830340050152  0.061306853618909966  1.0000
  Cl  Cl58      1.0  0.7568917111291602  0.2339248511338387  0.07901890329600482  1.0000
  Pu  Pu12      1.0  0.877458038332396  0.29322485051969727  0.09441664023556161  1.0000
  Cl  Cl59      1.0  0.8587355315527951  0.2505900531927655  0.9641625771833929  1.0000
  Cl  Cl60      1.0  0.8749479198088802  0.24301420947764046  0.11707097682102527  1.0000
  Cl  Cl61      1.0  0.9850354326157584  0.290257782907469  0.09124859773001724  1.0000
  Na  Na24      1.0  0.06829817467621135  0.3788169974714756  0.05771184284721568  1.0000
  Cl  Cl62      1.0  0.9968168620613868  0.396983308301467  0.04219294203164734  1.0000
  Na  Na25      1.0  0.1306773079213942  0.4182324747480663  0.06387569320178971  1.0000
  Cl  Cl63      1.0  0.11410887155184184  0.35666220341919264  0.05510454510573843  1.0000
  Cl  Cl64      1.0  0.1476497617205141  0.401740954695709  0.010635293613704777  1.0000
  Cl  Cl65      1.0  0.21577921673320083  0.39462206006929645  0.04057253026321298  1.0000
  Cl  Cl66      1.0  0.2465953670416679  0.4281096050502367  0.9815059661251146  1.0000
  Cl  Cl67      1.0  0.37428265651425147  0.42702822779504823  0.029079743771359554  1.0000
  Pu  Pu13      1.0  0.3446057774631626  0.3974836778918219  0.05322919296337533  1.0000
  Cl  Cl68      1.0  0.30815530015586484  0.4167851246933208  0.0051784530844445785  1.0000
  Cl  Cl69      1.0  0.4190388554928531  0.3256682358182854  0.09482355236523864  1.0000
  Cl  Cl70      1.0  0.46339599938493203  0.3975270983934642  0.08601560022493811  1.0000
  Na  Na26      1.0  0.4940239941862822  0.29982683441227215  0.07782545979372038  1.0000
  Cl  Cl71      1.0  0.6201522808856114  0.3622551775593163  0.03720950902886504  1.0000
  Na  Na27      1.0  0.4934843393801557  0.41815183667358763  0.03660182877016546  1.0000
  Na  Na28      1.0  0.5693192793200139  0.378353845453957  0.997912631751046  1.0000
  Cl  Cl72      1.0  0.7148585978964155  0.32111321843170776  0.08090934923179599  1.0000
  Cl  Cl73      1.0  0.7152493824111968  0.28085827812336467  0.03151315274197382  1.0000
  Na  Na29      1.0  0.6542435776036739  0.3087735253935347  0.07237019067309106  1.0000
  Cl  Cl74      1.0  0.8022661353454318  0.33252867507777906  0.07046837270115547  1.0000
  Cl  Cl75      1.0  0.7875796675756356  0.29921481210340833  0.014555730706993918  1.0000
  Pu  Pu14      1.0  0.8160945312970573  0.38578495416360753  0.08284218184776182  1.0000
  Cl  Cl76      1.0  0.8622112393271197  0.35157580179822984  0.08407925261598218  1.0000
  Na  Na30      1.0  0.8346598972135714  0.32366468981393054  0.024745964178864453  1.0000
  Cl  Cl77      1.0  0.813315619191946  0.390639779775811  0.02805150493960964  1.0000
  Cl  Cl78      1.0  0.924534132684461  0.28880629756685283  0.11444258912160744  1.0000
  Cl  Cl79      1.0  0.07147283363914884  0.41326806406028926  0.007033955854628311  1.0000
  Cl  Cl80      1.0  0.9926671026901379  0.4242534509758076  0.10730694658741859  1.0000
  Na  Na31      1.0  0.03387047245256717  0.464905378727738  0.10597517777275918  1.0000
  Cl  Cl81      1.0  0.1830037679791954  0.43446553943350474  0.11326341235557694  1.0000
  Cl  Cl82      1.0  0.1508403415340538  0.47101319595876406  0.9748440205874146  1.0000
  Pu  Pu15      1.0  0.25928655937885065  0.4407945944586133  0.03847945531975745  1.0000
  Cl  Cl83      1.0  0.2582196556242097  0.4473738342788993  0.09265976403339411  1.0000
  Na  Na32      1.0  0.3280398222651327  0.492613861704373  0.001366176460746568  1.0000
  Cl  Cl84      1.0  0.3155326501491962  0.46916679081749585  0.060328031453314945  1.0000
  Cl  Cl85      1.0  0.3601751287663535  0.4590973697223379  0.961073518637979  1.0000
  Cl  Cl86      1.0  0.40357081869349437  0.512564548387572  0.04521087366008524  1.0000
  Na  Na33      1.0  0.4175315437929824  0.4692536318207806  0.9964702440393454  1.0000
  Cl  Cl87      1.0  0.429143426517912  0.4351788762462008  0.9477909804212858  1.0000
  Cl  Cl88      1.0  0.48224049709771843  0.4818703890122907  0.008012529903071098  1.0000
  Na  Na34      1.0  0.5390531220323501  0.4971171880175669  0.009639826922480174  1.0000
  Na  Na35      1.0  0.519615210797118  0.48689062605932226  0.09662798435491919  1.0000
  Cl  Cl89      1.0  0.5496043039314448  0.4438774500752213  0.021152193992931372  1.0000
  Pu  Pu16      1.0  0.6064107259372704  0.4643326416346459  0.03690205052437839  1.0000
  Cl  Cl90      1.0  0.6162919915253114  0.4389605951749572  0.9878887798665424  1.0000
  Cl  Cl91      1.0  0.6350765275929727  0.5069674389615777  0.07159337722227979  1.0000
  Cl  Cl92      1.0  0.6465995016716823  0.44156375763056377  0.06711486262431014  1.0000
  Cl  Cl93      1.0  0.6865711748978823  0.46254619813850284  0.021745400751083492  1.0000
  Cl  Cl94      1.0  0.7145381132414362  0.47975932557529755  0.09081728741370308  1.0000
  Cl  Cl95      1.0  0.8045818954330245  0.46152478252843965  0.0325064484081163  1.0000
  Pu  Pu17      1.0  0.7691941865944971  0.47071959066194424  0.08178106749333984  1.0000
  Cl  Cl96      1.0  0.8319409467535852  0.4324040994269601  0.10262787062471991  1.0000
  Na  Na36      1.0  0.8842130278021867  0.40160862554784654  0.949453365341308  1.0000
  Cl  Cl97      1.0  0.9198984772234048  0.48768253330356154  0.04927213791370112  1.0000
  Cl  Cl98      1.0  0.9263164408947334  0.4144052676747321  0.08454178434062012  1.0000
  Cl  Cl99      1.0  0.9711739543771672  0.44542611463379894  0.9981673198725367  1.0000
  Pu  Pu18      1.0  0.9581457362415223  0.4440800790828856  0.05456240912808946  1.0000
  Cl  Cl100     1.0  0.08535498830709355  0.5474663611362921  0.1050532157878863  1.0000
  Cl  Cl101     1.0  0.08418945798443636  0.48810226481943775  0.017975426034199823  1.0000
  Cl  Cl102     1.0  0.19073489167876528  0.5943915175540767  0.11845960581640683  1.0000
  Na  Na37      1.0  0.09710623016586582  0.5431139727573789  0.012160159602096578  1.0000
  Cl  Cl103     1.0  0.16781196827599953  0.5398036764178824  0.06349793483750113  1.0000
  Cl  Cl104     1.0  0.20841220495454624  0.47295264503212303  0.04138594099397995  1.0000
  Cl  Cl105     1.0  0.3212496828654409  0.5408147538132689  0.01921257950813757  1.0000
  Na  Na38      1.0  0.32779377275582594  0.5567790249171118  0.07046754564398133  1.0000
  Na  Na39      1.0  0.4146368436834914  0.5727288225204072  0.04221899433263276  1.0000
  Na  Na40      1.0  0.4570958913609184  0.5255555489503806  0.03329008508061422  1.0000
  Cl  Cl106     1.0  0.43991584621108926  0.5828747464041732  0.09015191991710722  1.0000
  Cl  Cl107     1.0  0.5660151859093234  0.5113859919144221  0.054937686320855626  1.0000
  Na  Na41      1.0  0.5593201580846578  0.5957975147501152  0.03812981689938964  1.0000
  Cl  Cl108     1.0  0.628952169218464  0.508112913147762  0.007688199432231985  1.0000
  Pu  Pu19      1.0  0.6858599057281218  0.51550060135577  0.0393664741390229  1.0000
  Cl  Cl109     1.0  0.692199298967907  0.554510820617032  0.0827760172738306  1.0000
  Cl  Cl110     1.0  0.8667311067837964  0.5258243425319762  0.02244033554165487  1.0000
  Na  Na42      1.0  0.7662664041980404  0.5560822292478986  0.053985743513420156  1.0000
  Cl  Cl111     1.0  0.7953147197967826  0.5148720379034234  0.1024597712540759  1.0000
  Na  Na43      1.0  0.8591139102099644  0.5165323551805101  0.09054311796047558  1.0000
  Cl  Cl112     1.0  0.9250138258454624  0.5575978115195107  0.06306062835667445  1.0000
  Pu  Pu20      1.0  0.9202106913066427  0.5319383626918083  0.011533043499804704  1.0000
  Cl  Cl113     1.0  0.0007214957317188913  0.48105160240989175  0.062079738548144074  1.0000
  Cl  Cl114     1.0  0.01988371572852306  0.5437962949260446  0.07123112618000635  1.0000
  Cl  Cl115     1.0  0.034740329835469215  0.5940834387567094  0.9756586719039428  1.0000
  Cl  Cl116     1.0  0.010054926918181183  0.6064458758671714  0.0510695399174015  1.0000
  Pu  Pu21      1.0  0.05082886627972668  0.5867660504085033  0.08437575261291147  1.0000
  Na  Na44      1.0  0.1195872982733471  0.5982456039855705  0.11601565186682228  1.0000
  Cl  Cl117     1.0  0.08390887883810925  0.6027055097971219  0.04593144722305497  1.0000
  Cl  Cl118     1.0  0.21639537432793535  0.6381035568503262  0.06969197277893127  1.0000
  Pu  Pu22      1.0  0.20804623215498913  0.5795561794929354  0.06236424621604833  1.0000
  Cl  Cl119     1.0  0.16452855129466262  0.598042974977906  0.02800870473084788  1.0000
  Cl  Cl120     1.0  0.24856583075905714  0.54919284298731  0.02771427237685394  1.0000
  Cl  Cl121     1.0  0.35910408972584185  0.6059806562067175  0.04365828057993039  1.0000
  Cl  Cl122     1.0  0.3387894978860211  0.6845986435375578  0.07347968787220024  1.0000
  Pu  Pu23      1.0  0.37534335734008634  0.6549155615576628  0.04421819828682337  1.0000
  Cl  Cl123     1.0  0.3751427959753573  0.6348966426575973  0.9921729360285891  1.0000
  Cl  Cl124     1.0  0.4351023734575928  0.5918751961017549  0.998589669024369  1.0000
  Pu  Pu24      1.0  0.47898602711747645  0.6309515799369481  0.006534413321447578  1.0000
  Cl  Cl125     1.0  0.5049680282430935  0.5807802241106629  0.019444114164038143  1.0000
  Cl  Cl126     1.0  0.607316353542954  0.6361041461318421  0.02110112321242821  1.0000
  Na  Na45      1.0  0.6519112763725983  0.5938746068202391  0.0532225765059822  1.0000
  Cl  Cl127     1.0  0.7490408709036336  0.6055981422636776  0.05330610928057038  1.0000
  Cl  Cl128     1.0  0.6929560562822453  0.6593196410099599  0.023610207914476305  1.0000
  Cl  Cl129     1.0  0.8163178367340753  0.5658601126891721  0.042322583243693826  1.0000
  Pu  Pu25      1.0  0.8073339281799764  0.6178447913697599  0.06926541804136842  1.0000
  Cl  Cl130     1.0  0.8505373273141296  0.6301948226226097  0.03495495117215862  1.0000
  Cl  Cl131     1.0  0.9271372951400676  0.6276454188833223  0.08552246738485697  1.0000
  Cl  Cl132     1.0  0.9664225109117311  0.6992396231627762  0.011917893879361534  1.0000
  Pu  Pu26      1.0  0.02465519465400256  0.7247171194121678  0.012990442299216011  1.0000
  Cl  Cl133     1.0  0.058501268919932584  0.6952470046546141  0.9904175071764763  1.0000
  Pu  Pu27      1.0  0.16129062245790338  0.7052006377453923  0.10413332144594878  1.0000
  Cl  Cl134     1.0  0.14936652564973582  0.6522607080286725  0.0840806999660369  1.0000
  Na  Na46      1.0  0.19641036477200946  0.6543883126091484  0.024844590746880682  1.0000
  Cl  Cl135     1.0  0.21510309749334114  0.7007035143610045  0.0829652066024152  1.0000
  Na  Na47      1.0  0.29914657988654175  0.6550478907055254  0.9718480059740915  1.0000
  Cl  Cl136     1.0  0.22224060090617181  0.7788004556721364  0.020794078236528627  1.0000
  Cl  Cl137     1.0  0.40742904041085876  0.7014561363894722  0.03823485316050546  1.0000
  Cl  Cl138     1.0  0.3385434483767143  0.68859126204572  0.0030075107080437392  1.0000
  Cl  Cl139     1.0  0.2892715172273067  0.7328284826475486  0.042086044891889704  1.0000
  Pu  Pu28      1.0  0.34237065545004847  0.7410639044590506  0.022133704094342357  1.0000
  Cl  Cl140     1.0  0.4699380216323817  0.6472425386245764  0.05794817443472627  1.0000
  Na  Na48      1.0  0.509186019831209  0.6793282216953489  0.08652589450138266  1.0000
  Na  Na49      1.0  0.5764009563735901  0.6751433123941989  0.0432302784923128  1.0000
  Cl  Cl141     1.0  0.535467829182452  0.723197401854685  0.06885891944027847  1.0000
  Cl  Cl142     1.0  0.6133559385571135  0.7131093719731088  0.022682043000797365  1.0000
  Pu  Pu29      1.0  0.6735326185475607  0.7167091383235544  0.038661407898068316  1.0000
  Na  Na50      1.0  0.746985633825895  0.6277632745306373  0.006853595361377669  1.0000
  Cl  Cl143     1.0  0.7075763594781104  0.7125200937365339  0.08333593498072359  1.0000
  Cl  Cl144     1.0  0.7866719723270166  0.6620944178292006  0.03960962894822015  1.0000
  Na  Na51      1.0  0.7708958567302907  0.711265034474776  0.08022268501296602  1.0000
  Na  Na52      1.0  0.8287236943461794  0.6825930298902676  0.9906056626835932  1.0000
  Cl  Cl145     1.0  0.865054248363227  0.647670540712194  0.0967754072962097  1.0000
  Pu  Pu30      1.0  0.8947166539137684  0.6543924478950192  0.04574453230169927  1.0000
  Cl  Cl146     1.0  0.8743813856445941  0.7089285979578297  0.042064748169655594  1.0000
  Pu  Pu31      1.0  0.02905100353455818  0.7936544025196961  0.0671735836836741  1.0000
  Cl  Cl147     1.0  0.9924355266813786  0.765060968366731  0.03036912590584426  1.0000
  Cl  Cl148     1.0  0.02280816921985376  0.8265175193341603  0.020363470918812486  1.0000
  Cl  Cl149     1.0  0.06845428171783033  0.7596788938060131  0.027444858502377743  1.0000
  Cl  Cl150     1.0  0.1274612960997497  0.7302273878348774  0.06984229042033127  1.0000
  Pu  Pu32      1.0  0.11156153545548976  0.7916591270870825  0.06866373394718137  1.0000
  Na  Na53      1.0  0.2258072849696518  0.7537923143690696  0.0645979208791077  1.0000
  Cl  Cl151     1.0  0.38661821426655385  0.7661940366953031  0.0037500426389868884  1.0000
  Cl  Cl152     1.0  0.3774833677781743  0.7578386915935508  0.07710964180950197  1.0000
  Cl  Cl153     1.0  0.43239996414108944  0.812914496462488  0.008498880874324296  1.0000
  Na  Na54      1.0  0.4659702148394437  0.7048119208735464  0.018780400781790562  1.0000
  Cl  Cl154     1.0  0.5031505701029202  0.8365352493559345  0.05390675955328975  1.0000
  Cl  Cl155     1.0  0.4667062957244285  0.756513332471991  0.06999591629042783  1.0000
  Pu  Pu33      1.0  0.5145701620348623  0.7724238448595149  0.05231777595747273  1.0000
  Cl  Cl156     1.0  0.5683722988556233  0.7916901417311127  0.04532645490017135  1.0000
  Cl  Cl157     1.0  0.6528913391239545  0.765220176872753  0.05882671591795679  1.0000
  Na  Na55      1.0  0.6802007670140667  0.8003721744166505  0.008047824567977535  1.0000
  Cl  Cl158     1.0  0.7410825132454687  0.7542699398871355  0.9588818171265071  1.0000
  Cl  Cl159     1.0  0.7891944967081445  0.7176933363607815  0.9992371141920012  1.0000
  Pu  Pu34      1.0  0.7732674431771379  0.7837565957881721  0.9939097560942836  1.0000
  Cl  Cl160     1.0  0.7225626354735323  0.7713714146054214  0.03167298154087643  1.0000
  Na  Na56      1.0  0.8592214276426026  0.7536248352913062  0.9772073364625206  1.0000
  Cl  Cl161     1.0  0.8722372399206353  0.7876582380071788  0.014374357068704952  1.0000
  Cl  Cl162     1.0  0.9150912073987143  0.8255271183681273  0.07509699817623158  1.0000
  Cl  Cl163     1.0  0.8777102907705088  0.8231472613495385  0.9577301400115168  1.0000
  Na  Na57      1.0  0.911445952903691  0.7887685622634624  0.9804886858009222  1.0000
  Pu  Pu35      1.0  0.04326170666493012  0.9528277586118002  0.03885473251252361  1.0000
  Cl  Cl164     1.0  0.005745173336594856  0.8398993044117501  0.10076740551149134  1.0000
  Cl  Cl165     1.0  0.07362049435609763  0.8315005388083555  0.059139963822662414  1.0000
  Cl  Cl166     1.0  0.08346743707141188  0.9197992303625079  0.032637123441630465  1.0000
  Cl  Cl167     1.0  0.15504778814319897  0.826716013055954  0.07559550688794464  1.0000
  Cl  Cl168     1.0  0.13223382952312623  0.782671083247113  0.017676362160030695  1.0000
  Na  Na58      1.0  0.11206666062459594  0.8903063715326652  0.06088753563162085  1.0000
  Cl  Cl169     1.0  0.12385946210636876  0.8763539170049186  0.12063249177716688  1.0000
  Cl  Cl170     1.0  0.19625591184473878  0.8509984116887127  0.007100347869282424  1.0000
  Na  Na59      1.0  0.282605436403736  0.8422150644993429  0.04513416410718373  1.0000
  Pu  Pu36      1.0  0.2170859670683425  0.9038577033309538  0.015995078983579613  1.0000
  Cl  Cl171     1.0  0.2489173300580668  0.8915490249368111  0.060616674407089906  1.0000
  Cl  Cl172     1.0  0.3337754637677956  0.8651410893665118  0.0009299885747479163  1.0000
  Cl  Cl173     1.0  0.38752797715810816  0.8500204165802918  0.0658860624278312  1.0000
  Pu  Pu37      1.0  0.37928221713192944  0.8282005806835359  0.02134862007178969  1.0000
  Pu  Pu38      1.0  0.45342996043654155  0.8506510476755739  0.04992220485257539  1.0000
  Cl  Cl174     1.0  0.4116387614272329  0.8879161762993998  0.00995927775599186  1.0000
  Na  Na60      1.0  0.5431884079030516  0.8513271669154335  0.09312560398672862  1.0000
  Cl  Cl175     1.0  0.46429749170474494  0.905946022695658  0.04179678164523414  1.0000
  Cl  Cl176     1.0  0.5801619988729931  0.9709899341559209  0.0014327442250501846  1.0000
  Cl  Cl177     1.0  0.6328868937244364  0.8436541439823471  0.019538564093324964  1.0000
  Cl  Cl178     1.0  0.7056493162623634  0.8586197435484155  0.06437813043507992  1.0000
  Cl  Cl179     1.0  0.7290178167176973  0.9815390484120804  0.06201874308155123  1.0000
  Cl  Cl180     1.0  0.7884977010389314  0.8342691126987901  0.9843841250911229  1.0000
  Cl  Cl181     1.0  0.7722460275670747  0.9005908274930997  0.029023710647811552  1.0000
  Pu  Pu39      1.0  0.8610244122822285  0.8060664630606064  0.06515845887888129  1.0000
  Cl  Cl182     1.0  0.7971528543663094  0.7765736042307637  0.04541205531769487  1.0000
  Cl  Cl183     1.0  0.8481078468650924  0.8592172923567318  0.057405418164196705  1.0000
  Na  Na61      1.0  0.9683619599850902  0.8526980141815711  0.015149268288015693  1.0000
  Cl  Cl184     1.0  0.0460259385052005  0.9669166775732801  0.09483306352274123  1.0000
  Na  Na62      1.0  0.04596204833849816  0.038199909994898036  0.03399494455727528  1.0000
  Cl  Cl185     1.0  0.9867019528216511  0.9793597527582206  0.041447970282040475  1.0000
  Cl  Cl186     1.0  0.06305959453520678  0.9986303788461232  0.9978268659220877  1.0000
  Na  Na63      1.0  0.15442418703389718  0.08248282550559788  0.9708886196520887  1.0000
  Cl  Cl187     1.0  0.25901156286844895  0.9559085465854729  0.0499435015748095  1.0000
  Na  Na64      1.0  0.11553843987734333  0.019965366948040058  0.0013072941252336504  1.0000
  Cl  Cl188     1.0  0.18382048693865893  0.9312560398672861  0.049297569921805943  1.0000
  Cl  Cl189     1.0  0.3340091074194902  0.9196793070722575  0.03865210350485924  1.0000
  Cl  Cl190     1.0  0.4041352852148451  0.9400476576283975  0.9581891567431647  1.0000
  Cl  Cl191     1.0  0.41674170419167844  0.9770853455293349  0.07183818614582532  1.0000
  Na  Na65      1.0  0.48506489734740754  0.954812695829737  0.04067942740297061  1.0000
  Cl  Cl192     1.0  0.49938332467471125  0.9556728352908428  0.9932708544272604  1.0000
  Na  Na66      1.0  0.4489142282657356  0.9269636131334981  0.9940110705981158  1.0000
  Cl  Cl193     1.0  0.5840595058061291  0.033364726990580386  0.03235302930231328  1.0000
  Cl  Cl194     1.0  0.637878183770373  0.946653776806843  0.039960301190055635  1.0000
  Pu  Pu40      1.0  0.5992773578103104  0.9852711439103883  0.056149945373851755  1.0000
  Na  Na67      1.0  0.6440087450736878  0.9713889892424437  0.9844813043090844  1.0000
  Pu  Pu41      1.0  0.7795261983424445  0.9584062592513766  0.04077412544940968  1.0000
  Na  Na68      1.0  0.8693921632415927  0.907165932027515  0.03312219247426374  1.0000
  Cl  Cl195     1.0  0.9354947078847552  0.9713000805962235  0.08454591962649083  1.0000
  Cl  Cl196     1.0  0.9911163704886249  0.0480557435748343  0.013390717295070556  1.0000
  Na  Na69      1.0  0.09938932149508009  0.9984327680078628  0.11099334717685537  1.0000
  Na  Na70      1.0  0.17263867394428226  0.05015543497568296  0.13568948116097787  1.0000
  Cl  Cl197     1.0  0.11935530873600074  0.06626857637087108  0.11862522401552841  1.0000
  Cl  Cl198     1.0  0.16892063841793462  0.0919805433291314  0.08563432686765944  1.0000
  Cl  Cl199     1.0  0.24181084128926636  0.03058064577813064  0.06478111404317978  1.0000
  Cl  Cl200     1.0  0.29776746204866283  0.07006187410006551  0.06299260290410141  1.0000
  Na  Na71      1.0  0.29261282821083345  0.9995813006659507  0.09997591179583908  1.0000
  Cl  Cl201     1.0  0.38611370939032824  0.008683790182032709  0.9898178907252246  1.0000
  Cl  Cl202     1.0  0.3455796372857128  0.9893423328500939  0.09374176158146315  1.0000
  Pu  Pu42      1.0  0.34592493365591637  0.04784360340966731  0.089864724313387  1.0000
  Pu  Pu43      1.0  0.41856329761772243  0.02453713224239403  0.04013667113244105  1.0000
  Cl  Cl203     1.0  0.45915939901039843  0.03798880365119872  0.15866223475848557  1.0000
  Na  Na72      1.0  0.4705107587254738  0.09999824233954087  0.14165028897930046  1.0000
  Cl  Cl204     1.0  0.4518213342328387  0.06779139539275689  0.023372015448323902  1.0000
  Cl  Cl205     1.0  0.4151144692015574  0.057155233369019266  0.09113715177580184  1.0000
  Cl  Cl206     1.0  0.5180582756667989  0.09631328910015884  0.17187736781548615  1.0000
  Na  Na73      1.0  0.5002868846374595  0.0252792092918914  0.11695105353077494  1.0000
  Cl  Cl207     1.0  0.6401587939280649  0.01297369439143967  0.08023550439916517  1.0000
  Cl  Cl208     1.0  0.6141581840160295  0.027275725310266053  0.1642585171273058  1.0000
  Na  Na74      1.0  0.6792744629790297  0.9777531941974531  0.08849429057583655  1.0000
  Cl  Cl209     1.0  0.6913929182231202  0.9529724936172748  0.14857379134832235  1.0000
  Na  Na75      1.0  0.7101712513619755  0.05218668739537149  0.15088438232857676  1.0000
  Cl  Cl210     1.0  0.8261163966047024  0.05946747846362198  0.13216477024908552  1.0000
  Cl  Cl211     1.0  0.8582847853928888  0.012858381944935162  0.08890678534143902  1.0000
  Cl  Cl212     1.0  0.8391136000963169  0.9860775246551752  0.1458422282664305  1.0000
  Pu  Pu44      1.0  0.886224844378283  0.9702249062698411  0.11142300337882126  1.0000
  Cl  Cl213     1.0  0.9114604264042384  0.006824276184554395  0.14381614495408035  1.0000
  Cl  Cl214     1.0  0.9921460566704295  0.03996050795434917  0.09960890517481434  1.0000
  Pu  Pu45      1.0  0.010575518056443786  0.13284006243177107  0.1623802702848332  1.0000
  Cl  Cl215     1.0  0.03710343894628155  0.08925311553311026  0.13568451881793306  1.0000
  Cl  Cl216     1.0  0.9524845298845321  0.13523377265802658  0.16114816185965772  1.0000
  Cl  Cl217     1.0  0.10888559196855886  0.13121282744165003  0.09409264058759216  1.0000
  Pu  Pu46      1.0  0.16226882433061782  0.14544751523007204  0.10240229078047315  1.0000
  Cl  Cl218     1.0  0.19737843519434067  0.10370180436534107  0.1378720850435341  1.0000
  Cl  Cl219     1.0  0.1861972424928446  0.17684343261761146  0.14773267420222166  1.0000
  Na  Na76      1.0  0.30181383927314415  0.11135518469054174  0.10504101669456774  1.0000
  Cl  Cl220     1.0  0.30259540830270676  0.03668536154475363  0.14256563450678023  1.0000
  Na  Na77      1.0  0.3635329808933631  0.16954837481310708  0.0791979611742062  1.0000
  Cl  Cl221     1.0  0.355043239000813  0.11307360273411174  0.08654367623062668  1.0000
  Cl  Cl222     1.0  0.38177165922609174  0.021512584156563003  0.13254563007777712  1.0000
  Cl  Cl223     1.0  0.41689264212595906  0.1603833407378715  0.06873341351410268  1.0000
  Na  Na78      1.0  0.5453925152721354  0.11741379201970643  0.12292488749959023  1.0000
  Cl  Cl224     1.0  0.584630175256286  0.09258491535913442  0.15918224695672628  1.0000
  Cl  Cl225     1.0  0.5051106956056327  0.15276511034257179  0.0995561802799629  1.0000
  Na  Na79      1.0  0.6261277689687749  0.09163669430898257  0.12342835855434812  1.0000
  Cl  Cl226     1.0  0.6664302650646311  0.08424466405081023  0.1598769749830041  1.0000
  Cl  Cl227     1.0  0.6774445989812443  0.1230950545131696  0.0952083407155074  1.0000
  Pu  Pu47      1.0  0.7894860343620289  0.0873945112985235  0.16339031385875205  1.0000
  Cl  Cl228     1.0  0.8011744198755665  0.12741684177663967  0.12483518280756076  1.0000
  Cl  Cl229     1.0  0.8249936664908067  0.08362519822737914  0.2035823978218605  1.0000
  Cl  Cl230     1.0  0.7379686429848304  0.10159156798552214  0.14915293813451408  1.0000
  Cl  Cl231     1.0  0.8744889030772323  0.1281529226616245  0.15125138894960152  1.0000
  Pu  Pu48      1.0  0.8494063266284927  0.15795282646736672  0.10531849437649181  1.0000
  Na  Na80      1.0  0.8479010825715574  0.10216657948584316  0.24753407693431714  1.0000
  Cl  Cl232     1.0  0.993599609653981  0.08385057130733238  0.1910551695694511  1.0000
  Na  Na81      1.0  0.8956078080189045  0.1272001527970149  0.05087766265300095  1.0000
  Cl  Cl233     1.0  0.10467028831625934  0.2018586039066586  0.019991088426155823  1.0000
  Na  Na82      1.0  0.015957034353569162  0.14181590717842205  0.07941382309665682  1.0000
  Cl  Cl234     1.0  0.11737471356822829  0.19128943351402633  0.13298335008719087  1.0000
  Cl  Cl235     1.0  0.15025540534764306  0.20391135981287478  0.07129977192545998  1.0000
  Na  Na83      1.0  0.16569222073867798  0.21174731300926694  0.1224826186757187  1.0000
  Cl  Cl236     1.0  0.249496270079965  0.22557777660382788  0.13817147974057287  1.0000
  Pu  Pu49      1.0  0.28450353261838796  0.20106235461225505  0.1053761816143881  1.0000
  Cl  Cl237     1.0  0.3010901642457714  0.1598244568524462  0.13862780853640477  1.0000
  Na  Na84      1.0  0.2960099655536147  0.10819189776374868  0.01609416043304162  1.0000
  Cl  Cl238     1.0  0.3337113668367997  0.21728446079013616  0.1349962004847548  1.0000
  Pu  Pu50      1.0  0.3797040162907411  0.2382090072958854  0.15133885024576685  1.0000
  Cl  Cl239     1.0  0.4297988693284182  0.21625890989420218  0.1504766431417256  1.0000
  Na  Na85      1.0  0.43989723742467113  0.1771984469096112  0.11397282064669575  1.0000
  Cl  Cl240     1.0  0.4566203334857877  0.20886088347151735  0.06993430053095437  1.0000
  Cl  Cl241     1.0  0.5046082583723426  0.20974169936197676  0.1555556012481211  1.0000
  Cl  Cl242     1.0  0.5001111349879547  0.2490930797075716  0.2298784739093574  1.0000
  Pu  Pu51      1.0  0.5192285615682075  0.210326842312681  0.0796017718394802  1.0000
  Na  Na86      1.0  0.6211261407081614  0.24594405951703244  0.06481626397308075  1.0000
  Cl  Cl243     1.0  0.5710560993857086  0.21147851942767135  0.08091079658185073  1.0000
  Na  Na87      1.0  0.6022547636372155  0.18529616370161875  0.16807910774324689  1.0000
  Cl  Cl244     1.0  0.6531766738490329  0.2055756056115386  0.17516305920405195  1.0000
  Pu  Pu52      1.0  0.6797438179253543  0.1450350204644696  0.14868689141688604  1.0000
  Cl  Cl245     1.0  0.7240327296005666  0.17565309057973005  0.13312436333538177  1.0000
  Na  Na88      1.0  0.7473267949102279  0.1440034734040231  0.2426316955346006  1.0000
  Cl  Cl246     1.0  0.7565588206165689  0.24495986147980553  0.17372294589958018  1.0000
  Na  Na89      1.0  0.7897920455164609  0.24122983362443282  0.11455341478294224  1.0000
  Cl  Cl247     1.0  0.8051422266685047  0.19675834907802897  0.1348719351443402  1.0000
  Na  Na90      1.0  0.9090474870986842  0.1985445858098785  0.16352264300661448  1.0000
  Cl  Cl248     1.0  0.9607757780552884  0.21129036392055442  0.13990829980626748  1.0000
  Pu  Pu53      1.0  0.0402890564167764  0.29665093486357347  0.09028011377909896  1.0000
  Cl  Cl249     1.0  0.04156830710087788  0.2505611061916706  0.12727768940709056  1.0000
  Cl  Cl250     1.0  0.05006756015093054  0.2573326368049442  0.05552138192150513  1.0000
  Na  Na91      1.0  0.08940694816750035  0.24542094585438873  0.13749680785076795  1.0000
  Cl  Cl251     1.0  0.08417932653405315  0.2950278351593231  0.1269284645153098  1.0000
  Cl  Cl252     1.0  0.17924127812973772  0.27544518891861647  0.09529828318319515  1.0000
  Na  Na92      1.0  0.13808401844440754  0.3144967610385855  0.0701908950192314  1.0000
  Na  Na93      1.0  0.2906402968505089  0.31136634963446447  0.15768899522881596  1.0000
  Cl  Cl253     1.0  0.38199289702017425  0.25993579926055077  0.098601756301005  1.0000
  Cl  Cl254     1.0  0.4619321081867037  0.270189240576955  0.12237799594318997  1.0000
  Na  Na94      1.0  0.46620385849113827  0.24607432102195953  0.18034002358558307  1.0000
  Cl  Cl255     1.0  0.5333443598878468  0.3303493794239194  0.10783047377864939  1.0000
  Pu  Pu54      1.0  0.5664907437844541  0.2909690520772297  0.1264855753985577  1.0000
  Cl  Cl256     1.0  0.6209669322021394  0.2728668381782341  0.1227950395232502  1.0000
  Cl  Cl257     1.0  0.7208258154078377  0.31863204690928687  0.18286585619540752  1.0000
  Na  Na95      1.0  0.7101071544309796  0.21583297544951993  0.1914418187983617  1.0000
  Cl  Cl258     1.0  0.7735362367587335  0.29827196692488844  0.11938901131584698  1.0000
  Cl  Cl259     1.0  0.8250288164207077  0.2630000460907405  0.08141654204383751  1.0000
  Na  Na96      1.0  0.8506158977456729  0.35730730801502203  0.17488289358631195  1.0000
  Cl  Cl260     1.0  0.8737362810487646  0.31872715848431304  0.1495038171406431  1.0000
  Na  Na97      1.0  0.9718025178295139  0.266345492360138  0.1370880348424491  1.0000
  Cl  Cl261     1.0  0.02912151015865364  0.3479967118771378  0.10267108436206875  1.0000
  Na  Na98      1.0  0.043458132743788444  0.4029484581699538  0.1363552621861608  1.0000
  Na  Na99      1.0  0.9883498642411256  0.346954619837721  0.1959794679842824  1.0000
  Cl  Cl262     1.0  0.14065141067723252  0.4236621050962973  0.18151485830144934  1.0000
  Cl  Cl263     1.0  0.19384338606777154  0.3553016943677319  0.11169324431047159  1.0000
  Na  Na100     1.0  0.18723147748910704  0.39799645333978884  0.15211049458923973  1.0000
  Cl  Cl264     1.0  0.35483027177847193  0.3467354496865739  0.07515096365684423  1.0000
  Cl  Cl265     1.0  0.2825020542569685  0.39348899174072427  0.06850514573403996  1.0000
  Cl  Cl266     1.0  0.40668468895413257  0.34225486744566885  0.16131274623731165  1.0000
  Na  Na101     1.0  0.36881167330731346  0.31870648205495955  0.12769328563709606  1.0000
  Cl  Cl267     1.0  0.41248442738779134  0.4166362544019756  0.1569202455854526  1.0000
  Na  Na102     1.0  0.5255844959514755  0.38397783423811094  0.10527569416773006  1.0000
  Cl  Cl268     1.0  0.5954522183799116  0.300244498285213  0.07476390089934658  1.0000
  Cl  Cl269     1.0  0.6616291981687467  0.3496115410096467  0.12053510579491186  1.0000
  Pu  Pu55      1.0  0.7240203237429546  0.3311826395268657  0.13227580267471387  1.0000
  Cl  Cl270     1.0  0.7260941696071113  0.3831735211362596  0.15109610896515668  1.0000
  Cl  Cl271     1.0  0.7952320140793686  0.37751645006513995  0.13326413599781148  1.0000
  Na  Na103     1.0  0.9192099521259329  0.3412665341225712  0.13906614883869914  1.0000
  Cl  Cl272     1.0  0.9624753805481466  0.3662726077827028  0.13700016001769671  1.0000
  Na  Na104     1.0  0.9808711997439621  0.36280103529424895  0.0816375730736265  1.0000
  Na  Na105     1.0  0.980157862931266  0.5319611067640971  0.09732705443136129  1.0000
  Cl  Cl273     1.0  0.9857301606420363  0.5122523343043341  0.17392205991425444  1.0000
  Cl  Cl274     1.0  0.061643259124491534  0.5034917311872531  0.1549735597618199  1.0000
  Cl  Cl275     1.0  0.07370423389497933  0.43080167615206333  0.0929533693302139  1.0000
  Na  Na106     1.0  0.12371493386518774  0.4606088167080793  0.1339044850148896  1.0000
  Cl  Cl276     1.0  0.20559483469083736  0.48560248451059873  0.14908698032487638  1.0000
  Pu  Pu56      1.0  0.18206650543660094  0.4923616092662602  0.08958104370265688  1.0000
  Cl  Cl277     1.0  0.1447244604955799  0.5100730386504745  0.1290542082171439  1.0000
  Na  Na107     1.0  0.3540983261793577  0.47968902571549565  0.12221878743716795  1.0000
  Cl  Cl278     1.0  0.3520782390315201  0.42587448303712255  0.1010053912133502  1.0000
  Na  Na108     1.0  0.4259220388246356  0.37654465788552516  0.1155659395283835  1.0000
  Cl  Cl279     1.0  0.46791586684160874  0.4746108946662743  0.08724853570728774  1.0000
  Cl  Cl280     1.0  0.5275198097389638  0.44149966069956786  0.10233798708518374  1.0000
  Pu  Pu57      1.0  0.5784437875937166  0.44295941661192556  0.14459709369076232  1.0000
  Cl  Cl281     1.0  0.5720092827789052  0.3924985907746913  0.12782292684914254  1.0000
  Na  Na109     1.0  0.6859281379449883  0.42344913787395616  0.12347467375609998  1.0000
  Cl  Cl282     1.0  0.5940586270414853  0.4615785412447587  0.09820890414328835  1.0000
  Cl  Cl283     1.0  0.6794398744138577  0.4603731054134492  0.16766826709199267  1.0000
  Cl  Cl284     1.0  0.7638741413218397  0.41171733185877624  0.06699307845541798  1.0000
  Na  Na110     1.0  0.8615661347312903  0.4523589213960299  0.1495869363866442  1.0000
  Cl  Cl285     1.0  0.9418278981957345  0.4708022963793583  0.11668618847075651  1.0000
  Na  Na111     1.0  0.054208015128970354  0.5580196106783222  0.16218281038450721  1.0000
  Cl  Cl286     1.0  0.13114211405326107  0.47416841907810925  0.07134567359862477  1.0000
  Na  Na112     1.0  0.19586409350848982  0.5494926512129359  0.15535731429062097  1.0000
  Cl  Cl287     1.0  0.22676253600578386  0.5323911764946501  0.10339910143960573  1.0000
  Cl  Cl288     1.0  0.31494337191262123  0.5295895203172498  0.11693533944446628  1.0000
  Cl  Cl289     1.0  0.2602190663426938  0.5871547672803492  0.08097468674855306  1.0000
  Na  Na113     1.0  0.4113100062005121  0.5979809456898455  0.12764076750653816  1.0000
  Na  Na114     1.0  0.2668272531640747  0.4892105214327857  0.12823852307914804  1.0000
  Cl  Cl290     1.0  0.38754038301572025  0.533646235756408  0.11782876795683131  1.0000
  Cl  Cl291     1.0  0.4459202812953478  0.4819675682302521  0.1508355859553025  1.0000
  Cl  Cl292     1.0  0.44002956657253356  0.5554391922950045  0.16082581632603654  1.0000
  Pu  Pu58      1.0  0.43843127858350744  0.5298707197564576  0.11422755425633098  1.0000
  Cl  Cl293     1.0  0.48405381995202107  0.5369875467399348  0.08211127007011536  1.0000
  Cl  Cl294     1.0  0.6350496482348131  0.4125774713198821  0.1348283078784043  1.0000
  Pu  Pu59      1.0  0.5979147811159143  0.5300361311912856  0.10396460178242416  1.0000
  Cl  Cl295     1.0  0.6471908475511926  0.5318081011868813  0.14731790502939032  1.0000
  Cl  Cl296     1.0  0.6141085605855812  0.576630464739414  0.09058633169782442  1.0000
  Cl  Cl297     1.0  0.7396682454776887  0.535225914959016  0.14805894825742  1.0000
  Na  Na115     1.0  0.671977751060177  0.5818057750065969  0.13513990166876166  1.0000
  Cl  Cl298     1.0  0.8794657196226214  0.5076807757742736  0.13827568894451456  1.0000
  Na  Na116     1.0  0.9351535468004224  0.515204928416015  0.15350966856359158  1.0000
  Na  Na117     1.0  0.7949756263553851  0.5396341296971837  0.1713867161469274  1.0000
  Na  Na118     1.0  0.8839152872194962  0.5735124591929052  0.13274205615663542  1.0000
  Na  Na119     1.0  0.9676403526006527  0.591498885087521  0.09077035191907062  1.0000
  Na  Na120     1.0  0.05492734810617887  0.6648878034348593  0.1453623283411356  1.0000
  Cl  Cl299     1.0  0.9911701292049439  0.6512744423485103  0.1180574492654811  1.0000
  Cl  Cl300     1.0  0.14221930431510899  0.6388127583771516  0.2542229018301767  1.0000
  Cl  Cl301     1.0  0.07295037128075046  0.6342804850628627  0.10287702159842968  1.0000
  Na  Na121     1.0  0.26468517508305134  0.7243097937539037  0.1401276767217082  1.0000
  Na  Na122     1.0  0.2379732960012554  0.6376920959061915  0.11817137639121894  1.0000
  Cl  Cl302     1.0  0.2812035744935682  0.6738779149177643  0.11522663932269243  1.0000
  Na  Na123     1.0  0.27325969033595077  0.6452762101930579  0.05952454540863766  1.0000
  Cl  Cl303     1.0  0.36836299479034235  0.6070889128200655  0.15856422848334994  1.0000
  Na  Na124     1.0  0.3973306723146059  0.638231750712318  0.19431749659284747  1.0000
  Cl  Cl304     1.0  0.3828530364812802  0.6515370330012998  0.09692737905195799  1.0000
  Na  Na125     1.0  0.49175372224326713  0.5948009108552761  0.08286823414874725  1.0000
  Pu  Pu60      1.0  0.5406906952371479  0.6247052306292535  0.14390691447894224  1.0000
  Cl  Cl305     1.0  0.5483595828843637  0.5692117618873757  0.10633866940079385  1.0000
  Cl  Cl306     1.0  0.48917537150288476  0.6209876086314929  0.13017011510935267  1.0000
  Na  Na126     1.0  0.6049489023819774  0.7628403198541642  0.08332001413012137  1.0000
  Cl  Cl307     1.0  0.711118231826366  0.6652413703768044  0.15531368702468507  1.0000
  Cl  Cl308     1.0  0.6778767363547326  0.632725617575479  0.097461037693572  1.0000
  Na  Na127     1.0  0.7319786814011195  0.6434773608393027  0.08256139593714121  1.0000
  Na  Na128     1.0  0.8301999914020199  0.6316773226072562  0.14282657104522148  1.0000
  Cl  Cl309     1.0  0.7889257031265489  0.6526328837570357  0.10605085350419302  1.0000
  Cl  Cl310     1.0  0.8442703015770816  0.5865965036878045  0.09883353907405781  1.0000
  Na  Na129     1.0  0.9423344707148954  0.6529264890538554  0.13485270606504146  1.0000
  Cl  Cl311     1.0  0.9375251332472696  0.5731568246080249  0.13673467466479766  1.0000
  Na  Na130     1.0  0.984791450749387  0.5823578356703355  0.0073154240874176045  1.0000
  Cl  Cl312     1.0  0.045454855526456624  0.70262228700501  0.06009128633721729  1.0000
  Na  Na131     1.0  0.999965882251926  0.6601239541118114  0.06391084313169067  1.0000
  Cl  Cl313     1.0  0.1326316440238877  0.7365998633616284  0.1383060832956642  1.0000
  Pu  Pu61      1.0  0.17580568262835897  0.7471903304764947  0.17693027362089622  1.0000
  Cl  Cl314     1.0  0.1901944098154646  0.6917506204509359  0.14476312541847097  1.0000
  Cl  Cl315     1.0  0.29922515031808505  0.7581798526778837  0.15194363580435694  1.0000
  Na  Na132     1.0  0.3545470046963289  0.7609050060666761  0.13603043548101723  1.0000
  Na  Na133     1.0  0.38662441719535984  0.7049297765208614  0.08836320201373532  1.0000
  Cl  Cl316     1.0  0.37087311331385814  0.7137565442118736  0.15769354404327376  1.0000
  Cl  Cl317     1.0  0.4705872615140818  0.6989894383675987  0.1287841740497871  1.0000
  Cl  Cl318     1.0  0.5450224071867076  0.6313030792359576  0.0844272369220017  1.0000
  Na  Na134     1.0  0.5938601333196916  0.7106302680936234  0.17042257424617335  1.0000
  Cl  Cl319     1.0  0.6450384312554925  0.7076797416248778  0.08988085192828274  1.0000
  Cl  Cl320     1.0  0.581665175286993  0.7410060104568608  0.12213070584812202  1.0000
  Na  Na135     1.0  0.6496802896453548  0.7614157138717076  0.22696309737051287  1.0000
  Cl  Cl321     1.0  0.8389275122321354  0.7048201914452877  0.1434367324754435  1.0000
  Cl  Cl322     1.0  0.8995156531667173  0.7424533605116063  0.15158283211213824  1.0000
  Cl  Cl323     1.0  0.8371059188060913  0.7604335834774161  0.09678967403246364  1.0000
  Pu  Pu62      1.0  0.8753800571823684  0.7155388524221459  0.10190378206876008  1.0000
  Cl  Cl324     1.0  0.9885483579629193  0.773455598684255  0.1008550735719502  1.0000
  Cl  Cl325     1.0  0.07375489114689543  0.795511145875641  0.10722010558413386  1.0000
  Cl  Cl326     1.0  0.1832365845737159  0.758033050029474  0.11468967245238185  1.0000
  Cl  Cl327     1.0  0.045125480006855255  0.7854231159940649  0.2596111793197007  1.0000
  Na  Na136     1.0  0.1239328634305737  0.8314012919474586  0.14915169754875288  1.0000
  Na  Na137     1.0  0.24244147238454833  0.8916089865819362  0.1549588794969789  1.0000
  Cl  Cl328     1.0  0.23816972208011375  0.8412722193208231  0.1684725801938441  1.0000
  Cl  Cl329     1.0  0.2553911200886499  0.7994830879544498  0.09638937836017974  1.0000
  Pu  Pu63      1.0  0.29489343836852533  0.8247806992684656  0.14409465645747208  1.0000
  Cl  Cl330     1.0  0.2904500737004566  0.8731159881681595  0.11836532129855482  1.0000
  Cl  Cl331     1.0  0.331844285266178  0.8093457447560726  0.10664922936968352  1.0000
  Cl  Cl332     1.0  0.40606646371646266  0.8221671985981824  0.23124725353255957  1.0000
  Cl  Cl333     1.0  0.41749639386308146  0.7883054102459437  0.15319724771606008  1.0000
  Na  Na138     1.0  0.4653995453892869  0.782123157869245  0.1234223623898356  1.0000
  Cl  Cl334     1.0  0.5202313683918525  0.800800176504268  0.11178463412821411  1.0000
  Na  Na139     1.0  0.5578190493135933  0.7691135485200183  0.15962761724500082  1.0000
  Na  Na140     1.0  0.6239691497442688  0.8163178367340753  0.06914466769394394  1.0000
  Cl  Cl335     1.0  0.6339434592644005  0.7964560586970963  0.12444171035696351  1.0000
  Cl  Cl336     1.0  0.7548095946932621  0.7487410626780077  0.11308911005612687  1.0000
  Na  Na141     1.0  0.6617243097437727  0.7474487858434136  0.11857229235638343  1.0000
  Na  Na142     1.0  0.7771856265396275  0.752710937113881  0.17287355818173814  1.0000
  Cl  Cl337     1.0  0.7788480114596494  0.8014783633870631  0.19132189550811135  1.0000
  Na  Na143     1.0  0.7527522899725881  0.7916384506577291  0.07634358010195452  1.0000
  Cl  Cl338     1.0  0.8986947989213832  0.7627017877774959  0.07103139187245146  1.0000
  Cl  Cl339     1.0  0.9262502763208023  0.6947218233490349  0.08362044264862785  1.0000
  Na  Na144     1.0  0.9440836966382021  0.7916529241582765  0.11031888205134398  1.0000
  Cl  Cl340     1.0  0.010594953900036085  0.9156990944217075  0.06805874162429774  1.0000
  Cl  Cl341     1.0  0.061372811428547655  0.8479155560721049  0.13993869415741714  1.0000
  Na  Na145     1.0  0.022619186655562704  0.8948407124898894  0.12233850396312476  1.0000
  Na  Na146     1.0  0.20373106134891222  0.8400378364884187  0.11749711803000107  1.0000
  Cl  Cl342     1.0  0.14861452391414876  0.8618721458857221  0.18531684013097224  1.0000
  Na  Na147     1.0  0.34686157590563027  0.9067792827986044  0.16774166841619764  1.0000
  Na  Na148     1.0  0.37449355609365725  0.8266477808390875  0.13261179465170833  1.0000
  Cl  Cl343     1.0  0.43800120885295446  0.8955643875172621  0.1179129210243001  1.0000
  Pu  Pu64      1.0  0.4825485758950857  0.8961743421831906  0.15028228470580265  1.0000
  Cl  Cl344     1.0  0.440591965450949  0.8145872195971867  0.08820233939336503  1.0000
  Cl  Cl345     1.0  0.5074884849812861  0.8887597746170229  0.10376776217497877  1.0000
  Cl  Cl346     1.0  0.589464324439136  0.8423184466461106  0.13009278526357054  1.0000
  Cl  Cl347     1.0  0.5745442130176452  0.9022325359837683  0.06266053944868409  1.0000
  Cl  Cl348     1.0  0.6409982569598173  0.8709325572284291  0.09250882609911351  1.0000
  Pu  Pu65      1.0  0.660398950622213  0.8913298547856638  0.04754379518404146  1.0000
  Na  Na149     1.0  0.7583142494686815  0.8801335682907397  0.08238316511611397  1.0000
  Cl  Cl349     1.0  0.7795964982022464  0.8371307305213156  0.10626774924811132  1.0000
  Cl  Cl350     1.0  0.8594592065801681  0.8259179028829086  0.12029629303587885  1.0000
  Cl  Cl351     1.0  0.9846157010998822  0.9338137141783152  0.12676553425200418  1.0000
  Cl  Cl352     1.0  0.9945569283330484  0.9926112763308834  0.15818874452629025  1.0000
  Cl  Cl353     1.0  0.09764216321470873  0.024448016831880415  0.06621275001161661  1.0000
  Cl  Cl354     1.0  0.10515060177014134  0.9422745090697703  0.1150996860464619  1.0000
  Pu  Pu66      1.0  0.14391766622220606  0.9098538678434709  0.15672506009235546  1.0000
  Cl  Cl355     1.0  0.19353737491333967  0.9121634250022578  0.12680419917489524  1.0000
  Cl  Cl356     1.0  0.26899827824619293  0.9520958130126862  0.13022408058996532  1.0000
  Na  Na150     1.0  0.22844766499809468  0.9531730549820038  0.10288922069174825  1.0000
  Na  Na151     1.0  0.30222323257434364  0.9274763885814651  0.083099603393213  1.0000
  Cl  Cl357     1.0  0.3561432250424196  0.9038515004021479  0.10721038766233772  1.0000
  Na  Na152     1.0  0.3831342359204879  0.9031691782334821  0.05972448648048607  1.0000
  Cl  Cl358     1.0  0.4883751936869041  0.9571015765591702  0.14826922754394517  1.0000
  Cl  Cl359     1.0  0.470328806147163  0.013604739015308709  0.07033500973182534  1.0000
  Na  Na153     1.0  0.39222359426428965  0.9476648542022296  0.1159958024946429  1.0000
  Cl  Cl360     1.0  0.5449272956116815  0.9861147422280115  0.07519603827283489  1.0000
  Cl  Cl361     1.0  0.5965129192057466  0.9669311510738274  0.11693327180153092  1.0000
  Na  Na154     1.0  0.6068883514553365  0.9051106949497764  0.10667466137778833  1.0000
  Cl  Cl362     1.0  0.6870529357018191  0.9249828112014322  0.08989056985007889  1.0000
  Cl  Cl363     1.0  0.7867608809732367  0.938252943560513  0.09181058307984556  1.0000
  Cl  Cl364     1.0  0.7803884054464858  0.03293527755290804  0.1980890840712207  1.0000
  Na  Na155     1.0  0.7980295349708981  0.008900644573092292  0.0962872367991734  1.0000
  Na  Na156     1.0  0.76835679120568  0.9974247490843798  0.1546570036284177  1.0000
  Na  Na157     1.0  0.8499873342933263  0.8812211484747342  0.12238812739357317  1.0000
  Cl  Cl365     1.0  0.8703929024223025  0.9193898370613085  0.09099531147043678  1.0000
  Pu  Pu67      1.0  0.9862429360900032  0.9799056104931533  0.10375949160323736  1.0000
  Cl  Cl366     1.0  0.0846736999598955  0.015289309744026999  0.16124079226316143  1.0000
  Na  Na158     1.0  0.06108210083183735  0.9619936197442099  0.16414334941580677  1.0000
  Pu  Pu68      1.0  0.08802390180804426  0.07639485764675123  0.17432173529365774  1.0000
  Cl  Cl367     1.0  0.14206774608794778  0.9638648366007023  0.17155791698197442  1.0000
  Cl  Cl368     1.0  0.06366500038667747  0.06345989020749067  0.2235969746717619  1.0000
  Na  Na159     1.0  0.12156065669084583  0.004481429974508498  0.20196508751782916  1.0000
  Cl  Cl369     1.0  0.14135358221807762  0.05326289554322155  0.188012426225789  1.0000
  Na  Na160     1.0  0.2455636132169279  0.03398750104270802  0.15980481424456036  1.0000
  Cl  Cl370     1.0  0.2403076648752664  0.05443979790202317  0.20468341768493475  1.0000
  Cl  Cl371     1.0  0.2078415355043894  0.006891226462801051  0.13858500832764303  1.0000
  Na  Na161     1.0  0.3402740655136029  0.006657562134677067  0.2756416149974748  1.0000
  Na  Na162     1.0  0.44059403309388434  0.012184599141592423  0.11315816933016758  1.0000
  Na  Na163     1.0  0.47400507528621655  0.09780075142785012  0.24039037059268042  1.0000
  Cl  Cl372     1.0  0.42197284081811576  0.12857927063489383  0.1513221023379905  1.0000
  Cl  Cl373     1.0  0.5054415184752888  0.03744832178789805  0.22063197470246898  1.0000
  Pu  Pu69      1.0  0.5604904439860664  0.054481771053610795  0.1892244785144916  1.0000
  Cl  Cl374     1.0  0.5722367235017938  0.009208289165443126  0.2350765282488291  1.0000
  Na  Na164     1.0  0.6540740308829751  0.0313409180854591  0.1957418958110106  1.0000
  Cl  Cl375     1.0  0.7093938176182836  0.020542735561307396  0.18974345689126462  1.0000
  Cl  Cl376     1.0  0.8903787390354025  0.014342287926777664  0.2309515805928044  1.0000
  Na  Na165     1.0  0.8886543248273201  0.06324712974944309  0.12994908407956368  1.0000
  Cl  Cl377     1.0  0.9552634419896434  0.05312208905932416  0.26364101540069923  1.0000
  Na  Na166     1.0  0.023839095987419626  0.025091674077655092  0.23098259523683468  1.0000
  Cl  Cl378     1.0  0.9720506349817559  0.9818657359958658  0.24383299608003936  1.0000
  Cl  Cl379     1.0  0.05844089374622034  0.12845087000860855  0.18720335754518627  1.0000
  Cl  Cl380     1.0  0.12560724067962073  0.12361299906847494  0.1788457380362051  1.0000
  Pu  Pu70      1.0  0.15325204025384687  0.1351012367458706  0.22765162246798465  1.0000
  Cl  Cl381     1.0  0.2068656080389039  0.12109274909457596  0.2260781461941828  1.0000
  Na  Na167     1.0  0.3394470083394626  0.08697147155395075  0.24206722901324984  1.0000
  Cl  Cl382     1.0  0.30235142643633534  0.13862015825754398  0.2176132160168569  1.0000
  Na  Na168     1.0  0.23704492432328295  0.15910801857534718  0.14915790047755892  1.0000
  Pu  Pu71      1.0  0.40364111855329626  0.1427111965694289  0.20662679527987088  1.0000
  Cl  Cl383     1.0  0.4267883812145476  0.09508717683949584  0.21306646920202071  1.0000
  Cl  Cl384     1.0  0.3690949403894565  0.10091958403153314  0.19007986239684618  1.0000
  Cl  Cl385     1.0  0.44532066484409605  0.15246116683107522  0.24335537056197334  1.0000
  Cl  Cl386     1.0  0.5230185510687053  0.1497502801785369  0.246919986982518  1.0000
  Na  Na169     1.0  0.553749928016823  0.12957628805831994  0.20626723217341342  1.0000
  Cl  Cl387     1.0  0.6297109941757376  0.13525424232308655  0.20624903691558233  1.0000
  Cl  Cl388     1.0  0.5692758588183715  0.08778405522754358  0.23428048571871907  1.0000
  Cl  Cl389     1.0  0.6981851252657474  0.15529817970266996  0.20328258959623463  1.0000
  Na  Na170     1.0  0.6780959065058798  0.10031459170864952  0.21974495588320353  1.0000
  Cl  Cl390     1.0  0.7322929631272929  0.08677173724639586  0.23258088322586076  1.0000
  Na  Na171     1.0  0.8586197435484155  0.021934383315374548  0.18169184853671538  1.0000
  Na  Na172     1.0  0.7586636811247558  0.04176390612256207  0.24535684892339285  1.0000
  Cl  Cl391     1.0  0.8037858529029145  0.017845516028571737  0.26931255997236625  1.0000
  Cl  Cl392     1.0  0.8987340841371548  0.08568002177653068  0.20851145181544306  1.0000
  Pu  Pu72      1.0  0.943883135273473  0.1130097125674094  0.21573579623155847  1.0000
  Cl  Cl393     1.0  0.9225574660382657  0.1646606736782315  0.21450761632796014  1.0000
  Cl  Cl394     1.0  0.9961014576057554  0.18289769789661192  0.19763296203968234  1.0000
  Na  Na173     1.0  0.06868379008365426  0.2149955800607029  0.08505993566021901  1.0000
  Cl  Cl395     1.0  0.04103919727372164  0.20618245881306402  0.24850173382806126  1.0000
  Cl  Cl396     1.0  0.024356420249844378  0.17092521824375712  0.12473366153943505  1.0000
  Cl  Cl397     1.0  0.10898029001499791  0.16123272845571357  0.2563112211948809  1.0000
  Na  Na174     1.0  0.09956527790887844  0.2030764455955802  0.21822523832572072  1.0000
  Cl  Cl398     1.0  0.1676058242753451  0.18467959257829716  0.22046656326764089  1.0000
  Na  Na175     1.0  0.23581260913381394  0.2421189200866336  0.18955344050550588  1.0000
  Cl  Cl399     1.0  0.24713915713366516  0.18238202774853543  0.2018592241995392  1.0000
  Pu  Pu73      1.0  0.30577544313727617  0.19235220198279662  0.2149046037715475  1.0000
  Cl  Cl400     1.0  0.2883431455493342  0.24899796813254546  0.21881658420523106  1.0000
  Cl  Cl401     1.0  0.3358265655596635  0.19256413538367004  0.2593796033109414  1.0000
  Na  Na176     1.0  0.38376073172989916  0.3116041285720298  0.1939225767921955  1.0000
  Cl  Cl402     1.0  0.36133921173895595  0.18934812356202554  0.18181818152006532  1.0000
  Na  Na177     1.0  0.3931209512982319  0.24417829245024295  0.25855874906560716  1.0000
  Cl  Cl403     1.0  0.39805434734197864  0.2526018697688618  0.20298360842778293  1.0000
  Pu  Pu74      1.0  0.5390882719622511  0.23593460006699962  0.19064515597537104  1.0000
  Cl  Cl404     1.0  0.5511054127025095  0.2163230068251981  0.28504939035332055  1.0000
  Cl  Cl405     1.0  0.5600128184680003  0.18527817520808118  0.20037589715771859  1.0000
  Cl  Cl406     1.0  0.6420506872139107  0.21649462118883217  0.24168885035608068  1.0000
  Na  Na178     1.0  0.65955535230459  0.17164144975656262  0.2303602347132941  1.0000
  Pu  Pu75      1.0  0.7717601314772673  0.28060809332818726  0.21546286736409218  1.0000
  Cl  Cl407     1.0  0.7152452471253261  0.25663377349279565  0.22259416784811678  1.0000
  Cl  Cl408     1.0  0.7827351801781088  0.14712189247911908  0.1991996150917976  1.0000
  Cl  Cl409     1.0  0.8165080598841276  0.24992013688171186  0.23610001150182766  1.0000
  Cl  Cl410     1.0  0.8664705837739421  0.2001027615259588  0.20006285601730653  1.0000
  Na  Na179     1.0  0.823821312946463  0.153432545482103  0.17225822764417772  1.0000
  Na  Na180     1.0  0.012092837148121557  0.21779103330929708  0.1511728185180582  1.0000
  Na  Na181     1.0  0.0005564936901920334  0.29848700179016485  0.26755713112025353  1.0000
  Cl  Cl411     1.0  0.02597993348268176  0.29875372772882514  0.21718107864336864  1.0000
  Cl  Cl412     1.0  0.08963893770484671  0.25369978816753297  0.2006134693309904  1.0000
  Cl  Cl413     1.0  0.1578353843486388  0.33359144354654935  0.170284869226679  1.0000
  Na  Na182     1.0  0.1545610649962174  0.2517872184523336  0.22199248375392974  1.0000
  Pu  Pu76      1.0  0.194880722528437  0.30682373810549896  0.13663273986808488  1.0000
  Cl  Cl414     1.0  0.2455057192147381  0.2847123645548584  0.14465705533588746  1.0000
  Cl  Cl415     1.0  0.18532883245999732  0.24732110971197602  0.16426161859170885  1.0000
  Na  Na183     1.0  0.3286559798598672  0.32253162148535836  0.2509084702048095  1.0000
  Cl  Cl416     1.0  0.30424331972218127  0.3408840201795313  0.20357557460017384  1.0000
  Cl  Cl417     1.0  0.3431501568366757  0.2876132675931554  0.16114940244541895  1.0000
  Cl  Cl418     1.0  0.4145065821785643  0.35620318668754475  0.2325085157231235  1.0000
  Cl  Cl419     1.0  0.4802307481645575  0.32002357060477793  0.2095576791407305  1.0000
  Cl  Cl420     1.0  0.4378337297751911  0.2695627447675437  0.26248933828570886  1.0000
  Pu  Pu77      1.0  0.45392619474102575  0.32361299874054683  0.2581162734774421  1.0000
  Cl  Cl421     1.0  0.5239862079624494  0.2779222251551666  0.16119571764717078  1.0000
  Na  Na184     1.0  0.5366525885844079  0.31524938306705313  0.2182190353969147  1.0000
  Cl  Cl422     1.0  0.5771039549716094  0.2599171904741326  0.22536480938148676  1.0000
  Na  Na185     1.0  0.6312803351636689  0.25407816682470213  0.18671001794081157  1.0000
  Cl  Cl423     1.0  0.5792274242662145  0.23564926534192124  0.15596375396355935  1.0000
  Cl  Cl424     1.0  0.6606015796298774  0.29593759805087744  0.20077888076581846  1.0000
  Cl  Cl425     1.0  0.7578531650940983  0.23007283234528034  0.25977245546865807  1.0000
  Cl  Cl426     1.0  0.8029856750869337  0.3058229989247892  0.18017109715776491  1.0000
  Na  Na186     1.0  0.852414747099428  0.28500183456580747  0.27217624543782704  1.0000
  Cl  Cl427     1.0  0.8862579266652486  0.2737455864257582  0.22855931771660362  1.0000
  Cl  Cl428     1.0  0.9596737243707465  0.3100161787976805  0.17231550135348694  1.0000
  Na  Na187     1.0  0.8526173761070923  0.2514171103669058  0.18836247817474389  1.0000
  Na  Na188     1.0  0.07458649713549349  0.3125945295380628  0.190868874940976  1.0000
  Cl  Cl429     1.0  0.07124249821615078  0.4544947965482472  0.20066164541138407  1.0000
  Cl  Cl430     1.0  0.05485374001768039  0.37111502753729414  0.18834324909544511  1.0000
  Na  Na189     1.0  0.12207715389609643  0.4149159754797638  0.23650113423128571  1.0000
  Cl  Cl431     1.0  0.22132256744287612  0.3553802647992752  0.18513219961684543  1.0000
  Cl  Cl432     1.0  0.16739802616034236  0.44146864605553765  0.25281690463413825  1.0000
  Pu  Pu78      1.0  0.26423236128020955  0.3933545949499265  0.19458732399591075  1.0000
  Cl  Cl433     1.0  0.26747442540283944  0.3848235001986694  0.13995523530089996  1.0000
  Cl  Cl434     1.0  0.25589562496487545  0.3939314673288893  0.2466305169715689  1.0000
  Na  Na190     1.0  0.3081532325129295  0.42089973413466875  0.12355283065905623  1.0000
  Na  Na191     1.0  0.4720635585699222  0.31637004553801323  0.1467718405301642  1.0000
  Cl  Cl435     1.0  0.38891950085359916  0.46031314376832405  0.2723333863009137  1.0000
  Na  Na192     1.0  0.44056508609278944  0.37756400585265304  0.1901714589788822  1.0000
  Cl  Cl436     1.0  0.5869231912715899  0.3148606661952072  0.17013227717805013  1.0000
  Cl  Cl437     1.0  0.4764924497374435  0.3787177506105788  0.14758008215359278  1.0000
  Na  Na193     1.0  0.6171314545570639  0.3579400067532394  0.151321895573697  1.0000
  Cl  Cl438     1.0  0.6498353628655061  0.36685775073340704  0.20425272766150118  1.0000
  Cl  Cl439     1.0  0.5812351055564401  0.33858686887835665  0.24127738941194588  1.0000
  Na  Na194     1.0  0.6521738670253878  0.41752740850711173  0.18531001690928559  1.0000
  Cl  Cl440     1.0  0.8128255878162679  0.41069591624871293  0.21251440853828207  1.0000
  Na  Na195     1.0  0.693135941217621  0.3650609690225872  0.22679148300687876  1.0000
  Cl  Cl441     1.0  0.7958378334594264  0.3100285846552926  0.25246127004925795  1.0000
  Pu  Pu79      1.0  0.7957778718143013  0.3770470951188154  0.2541939548290818  1.0000
  Cl  Cl442     1.0  0.8534113509942671  0.34958672929442247  0.24022909444372306  1.0000
  Cl  Cl443     1.0  0.0065657587883474955  0.43195955619585974  0.18468434815704846  1.0000
  Na  Na196     1.0  0.9101846907131271  0.3257736856079883  0.21608109260176203  1.0000
  Pu  Pu80      1.0  0.029832572564120752  0.4894296915839329  0.19915867576167764  1.0000
  Cl  Cl444     1.0  0.985180167621233  0.4607039282831054  0.23841577158942048  1.0000
  Cl  Cl445     1.0  0.04684741304341534  0.49472699278430143  0.263616203685475  1.0000
  Na  Na197     1.0  0.17166067883586136  0.4866404412641448  0.28044268189335914  1.0000
  Cl  Cl446     1.0  0.14873362014722494  0.5093183489790715  0.22503812179770136  1.0000
  Pu  Pu81      1.0  0.1819713938615748  0.46607979991501725  0.19847614682871836  1.0000
  Cl  Cl447     1.0  0.22238947119751706  0.4336426175452352  0.19741896099587353  1.0000
  Na  Na198     1.0  0.2828576888418488  0.5611066015808008  0.12616322986493653  1.0000
  Cl  Cl448     1.0  0.2796776540072794  0.508112913147762  0.18299115535728977  1.0000
  Cl  Cl449     1.0  0.31548509436168315  0.4186439356922011  0.18055815991526258  1.0000
  Pu  Pu82      1.0  0.31528660063988945  0.46817638985146287  0.21170596015055995  1.0000
  Pu  Pu83      1.0  0.4712716513256829  0.43190372983660524  0.13059088044669653  1.0000
  Cl  Cl450     1.0  0.45345270450883046  0.4452607031989709  0.21765456887556395  1.0000
  Cl  Cl451     1.0  0.5281152909043447  0.4301648421279753  0.17258181376356013  1.0000
  Na  Na199     1.0  0.5085264417348321  0.46784556698180674  0.2304491433595142  1.0000
  Cl  Cl452     1.0  0.594788504997664  0.41335697270650934  0.20001964227995767  1.0000
  Cl  Cl453     1.0  0.7294892393069572  0.43235240835357636  0.20007298746768973  1.0000
  Cl  Cl454     1.0  0.7616658986668852  0.5022346042825598  0.21017797202133576  1.0000
  Na  Na200     1.0  0.7762407137181722  0.41593945873276233  0.17044655890422344  1.0000
  Cl  Cl455     1.0  0.831349600874075  0.4749169058207062  0.18929519190288058  1.0000
  Cl  Cl456     1.0  0.8880505730901976  0.39684270858186316  0.1570955817063703  1.0000
  Na  Na201     1.0  0.8165246010276103  0.4686395418689815  0.24746377707451525  1.0000
  Cl  Cl457     1.0  0.9261427588881639  0.46191349940028553  0.19098507647394272  1.0000
  Pu  Pu84      1.0  0.9429134107367935  0.4165721574709797  0.14460143574092654  1.0000
  Cl  Cl458     1.0  0.9445799309426863  0.3823237198898304  0.20385739433226216  1.0000
  Cl  Cl459     1.0  0.011907762428978315  0.5710457611710318  0.1267928271387508  1.0000
  Na  Na202     1.0  0.9728673539412194  0.5765725707372242  0.1759928043140082  1.0000
  Cl  Cl460     1.0  0.02591687037315356  0.5422745097256265  0.21554970836737689  1.0000
  Cl  Cl461     1.0  0.12177052244878392  0.5718025184853701  0.17859534647673414  1.0000
  Na  Na203     1.0  0.10173030682648417  0.5258987776776488  0.20189416736514662  1.0000
  Cl  Cl462     1.0  0.18796487043827592  0.5881286271028994  0.20260667712066852  1.0000
  Na  Na204     1.0  0.17553812963252458  0.554103494958768  0.2525749904107022  1.0000
  Cl  Cl463     1.0  0.21233038831703582  0.5150643286964111  0.20698139604328356  1.0000
  Cl  Cl464     1.0  0.2543324869057503  0.601727514688701  0.1538907351565767  1.0000
  Cl  Cl465     1.0  0.35109404099429314  0.48533162328606777  0.17732829488595123  1.0000
  Na  Na205     1.0  0.32785993732975716  0.5422972537979154  0.18147309191415525  1.0000
  Na  Na206     1.0  0.39758292475271867  0.46535198960177376  0.2048223632901903  1.0000
  Cl  Cl466     1.0  0.5162697645277206  0.4973115464534898  0.19372366954181475  1.0000
  Cl  Cl467     1.0  0.5554226511515218  0.5023379864293275  0.138163415933125  1.0000
  Pu  Pu85      1.0  0.5519200640190376  0.5341507406326336  0.18345079238181825  1.0000
  Cl  Cl468     1.0  0.6049096171662058  0.4840455493802796  0.18424104551170925  1.0000
  Cl  Cl469     1.0  0.674105355640653  0.5823991885290426  0.2248086134318774  1.0000
  Na  Na207     1.0  0.6492833022017676  0.5429175466785205  0.20025369946023935  1.0000
  Pu  Pu86      1.0  0.7257137233070068  0.48577616651716815  0.17302346229455104  1.0000
  Cl  Cl470     1.0  0.697151303798072  0.5100027387906726  0.21845888197741536  1.0000
  Na  Na208     1.0  0.8681433069086409  0.5086525679538885  0.2132298129939134  1.0000
  Cl  Cl471     1.0  0.7554009405727723  0.44773980707845634  0.13354264750120323  1.0000
  Cl  Cl472     1.0  0.8947662773442169  0.5518476965163003  0.19182846802727227  1.0000
  Cl  Cl473     1.0  0.9432504365352558  0.545868073147266  0.2240580590463451  1.0000
  Pu  Pu87      1.0  0.11290695071352247  0.6108561582482744  0.2155455730815062  1.0000
  Cl  Cl474     1.0  0.06448399375336988  0.6070020718167807  0.17964157380202161  1.0000
  Cl  Cl475     1.0  0.1230625925190846  0.6548287205543781  0.17987521745371624  1.0000
  Pu  Pu88      1.0  0.23505998710534626  0.6091131352537738  0.20483663002644423  1.0000
  Cl  Cl476     1.0  0.24104994868905733  0.6632812448740918  0.19257840211992397  1.0000
  Cl  Cl477     1.0  0.22936776610432574  0.6165628527498425  0.2559555866100006  1.0000
  Na  Na209     1.0  0.3321089435619029  0.660316244904799  0.15275849388517865  1.0000
  Cl  Cl478     1.0  0.4103113346627377  0.5971973090173476  0.23772931413488405  1.0000
  Cl  Cl479     1.0  0.33962069034603204  0.6000196416241014  0.2323141572872005  1.0000
  Cl  Cl480     1.0  0.386041341887591  0.6651690028740671  0.24602676523444647  1.0000
  Cl  Cl481     1.0  0.5320665565538001  0.6473603942718914  0.1964690858313734  1.0000
  Na  Na210     1.0  0.42881673893412664  0.7033893825340252  0.25459921284441056  1.0000
  Cl  Cl482     1.0  0.5870307087042281  0.5728073929519505  0.16604806208785186  1.0000
  Cl  Cl483     1.0  0.5218337916667494  0.576589111880707  0.18356285862891422  1.0000
  Cl  Cl484     1.0  0.6001209561279336  0.6579901466025294  0.16267098088154353  1.0000
  Cl  Cl485     1.0  0.6510118516957207  0.6197635640137653  0.17207358713005091  1.0000
  Na  Na211     1.0  0.6131202272624835  0.6177414092229924  0.2184940319073163  1.0000
  Pu  Pu89      1.0  0.657822667524766  0.6649870502957562  0.1355941628216582  1.0000
  Cl  Cl486     1.0  0.7556221783668549  0.5847087456878293  0.19820569913277447  1.0000
  Cl  Cl487     1.0  0.8222974601031094  0.5873884109320439  0.17936761111308763  1.0000
  Pu  Pu90      1.0  0.8745302559359392  0.6032120823162829  0.2079345794364802  1.0000
  Cl  Cl488     1.0  0.834575123853222  0.6546819179059683  0.20340333994365914  1.0000
  Cl  Cl489     1.0  0.8943754928294355  0.6286275492776139  0.16159539302657408  1.0000
  Cl  Cl490     1.0  0.9278713083821171  0.6149852411901698  0.22514563923033956  1.0000
  Cl  Cl491     1.0  0.07916115712995694  0.759124765499339  0.1963770757207503  1.0000
  Na  Na212     1.0  0.11031516029406034  0.7154251320607016  0.18617222401332686  1.0000
  Cl  Cl492     1.0  0.1525730263138777  0.7172198461285861  0.2195568003760866  1.0000
  Na  Na213     1.0  0.17817685554661916  0.6577337588785459  0.2028318434363282  1.0000
  Cl  Cl493     1.0  0.23314328210427618  0.7398688068424178  0.19601503144277038  1.0000
  Na  Na214     1.0  0.2446662561829857  0.7874638795712559  0.22473624592914013  1.0000
  Cl  Cl494     1.0  0.3147614193343104  0.6864595221793734  0.20550633957320433  1.0000
  Cl  Cl495     1.0  0.35212579481903317  0.7862005497377567  0.18373736769265783  1.0000
  Pu  Pu91      1.0  0.3456747488607389  0.7319952225446023  0.2087699071823619  1.0000
  Cl  Cl496     1.0  0.35087280320021064  0.72593909638696  0.2634611304653237  1.0000
  Cl  Cl497     1.0  0.4447396571792625  0.6649229533647603  0.1871748240726784  1.0000
  Pu  Pu92      1.0  0.49319900465507727  0.6925611364815933  0.17885049361495642  1.0000
  Na  Na215     1.0  0.43571646340939196  0.6802979462320282  0.32286864728382053  1.0000
  Cl  Cl498     1.0  0.486152477531402  0.7004491942799563  0.23622200243501337  1.0000
  Cl  Cl499     1.0  0.544275988087046  0.6786831170995193  0.1299379188077128  1.0000
  Cl  Cl500     1.0  0.5947223404237328  0.7640684997577626  0.19912063113166717  1.0000
  Cl  Cl501     1.0  0.6439942715731404  0.7205177366104704  0.16090521381475403  1.0000
  Na  Na216     1.0  0.7067224229458106  0.7217562547287456  0.15583245863716455  1.0000
  Cl  Cl502     1.0  0.7768258566688765  0.6894265897916018  0.19504861513478747  1.0000
  Na  Na217     1.0  0.6941656273994256  0.6337263567561887  0.2303685052850355  1.0000
  Na  Na218     1.0  0.8199258736562621  0.7027422102952603  0.21862842869811414  1.0000
  Na  Na219     1.0  0.8886687983278675  0.6804302753798906  0.17461492706189047  1.0000
  Cl  Cl503     1.0  0.911723017057028  0.7734473281125135  0.21991036731803157  1.0000
  Na  Na220     1.0  0.9469101645308264  0.7453666694075154  0.19006745653923407  1.0000
  Cl  Cl504     1.0  0.9417906806228982  0.6910600277105289  0.18873279302446516  1.0000
  Cl  Cl505     1.0  0.9030244432280076  0.8350175994413871  0.2483673370372635  1.0000
  Pu  Pu93      1.0  0.050827212165378395  0.7303555816968691  0.2313465003934564  1.0000
  Cl  Cl506     1.0  0.996792382808673  0.7148792743257689  0.23463818794653474  1.0000
  Cl  Cl507     1.0  0.14391642563644486  0.7913117630739437  0.1738629253263034  1.0000
  Na  Na221     1.0  0.14086685907109608  0.8038375439762984  0.23107357152599012  1.0000
  Cl  Cl508     1.0  0.19238962631992643  0.7941299603948266  0.2208490772106808  1.0000
  Cl  Cl509     1.0  0.2921165939063493  0.8078529065567494  0.20154122071608224  1.0000
  Na  Na222     1.0  0.3534139363677567  0.8261081260329608  0.2206505834888871  1.0000
  Na  Na223     1.0  0.28072388133256687  0.8462345623656647  0.2741673855845697  1.0000
  Cl  Cl510     1.0  0.3328119421599221  0.8602531814673426  0.2611308968771835  1.0000
  Cl  Cl511     1.0  0.40239019457740915  0.7408881548095457  0.21159017214618028  1.0000
  Pu  Pu94      1.0  0.43868973395042626  0.7817385762832698  0.20547801286499  1.0000
  Cl  Cl512     1.0  0.45983138296438736  0.7751221188901475  0.250846440916749  1.0000
  Cl  Cl513     1.0  0.4696278751920791  0.847096769469706  0.18058276486619326  1.0000
  Cl  Cl514     1.0  0.47575016592365255  0.746030382789763  0.1798042973010337  1.0000
  Na  Na224     1.0  0.5232191124334343  0.8318644439649773  0.2403324765904906  1.0000
  Cl  Cl515     1.0  0.5613981392346853  0.8210258596978688  0.18952821526169458  1.0000
  Cl  Cl516     1.0  0.6140444636545853  0.8768915041681099  0.22282987914274677  1.0000
  Cl  Cl517     1.0  0.7228272937692573  0.7629044167851602  0.19206314550043457  1.0000
  Na  Na225     1.0  0.7475025445597326  0.8051070767386037  0.24339052049187432  1.0000
  Cl  Cl518     1.0  0.6516714297920977  0.8129393081777121  0.2375845791294095  1.0000
  Cl  Cl519     1.0  0.8457920867774997  0.7959701626072888  0.19922711474283775  1.0000
  Na  Na226     1.0  0.8033206332424605  0.8510211557610017  0.33097794287626603  1.0000
  Pu  Pu95      1.0  0.8559876340917141  0.8015590014615419  0.25125790186088376  1.0000
  Cl  Cl520     1.0  0.9209550427633689  0.8069844965239021  0.1654664341301377  1.0000
  Na  Na227     1.0  0.8593475538616591  0.8417911976975961  0.1786276017065256  1.0000
  Cl  Cl521     1.0  0.9950014715641489  0.7859586355143207  0.20618142499159633  1.0000
  Pu  Pu96      1.0  0.9443380167192501  0.8156334469224741  0.2122786972436521  1.0000
  Cl  Cl522     1.0  0.031120920877137782  0.859076692637128  0.25093948484883977  1.0000
  Cl  Cl523     1.0  0.02188641399927441  0.897803644816247  0.1818748349364939  1.0000
  Cl  Cl524     1.0  0.08802845062250204  0.8184599148150986  0.21091818819219132  1.0000
  Pu  Pu97      1.0  0.05884759911160383  0.8599099527400744  0.19365771173217708  1.0000
  Na  Na228     1.0  0.20019911368674612  0.8607204687707319  0.2213990702314841  1.0000
  Cl  Cl525     1.0  0.24081423739442734  0.8746832615131553  0.25148534258377236  1.0000
  Na  Na229     1.0  0.20223222698507648  0.9043125847767312  0.25970835853766217  1.0000
  Cl  Cl526     1.0  0.2893232083006905  0.9027494467176059  0.1887695970687144  1.0000
  Na  Na230     1.0  0.30374501777476176  0.9015812284591328  0.2418005030745896  1.0000
  Cl  Cl527     1.0  0.3378590585651132  0.8521686975901214  0.1664529065745935  1.0000
  Cl  Cl528     1.0  0.3265139017788439  0.9595475981516901  0.2283339446366504  1.0000
  Cl  Cl529     1.0  0.37731175341454026  0.8793850815481428  0.2098202697935201  1.0000
  Na  Na231     1.0  0.42898421801189  0.8719787845537166  0.2108892411910964  1.0000
  Cl  Cl530     1.0  0.46115467444301184  0.9142724207963154  0.20448513072743463  1.0000
  Cl  Cl531     1.0  0.5414329790509388  0.8785662949457439  0.2179667829588019  1.0000
  Pu  Pu98      1.0  0.581658972358187  0.8705210962842943  0.17734917807959827  1.0000
  Na  Na232     1.0  0.625315185295182  0.9219413084435312  0.2439157017974534  1.0000
  Na  Na233     1.0  0.676776750313126  0.8052600823158196  0.15754446698763494  1.0000
  Cl  Cl532     1.0  0.7241133676750453  0.8056860167605019  0.1286634237023626  1.0000
  Cl  Cl533     1.0  0.7204639778941514  0.87294230616159  0.1470023827174558  1.0000
  Cl  Cl534     1.0  0.7327416416442638  0.8565955211147073  0.21918462464772345  1.0000
  Pu  Pu99      1.0  0.7625942703448576  0.8417353713383415  0.15922897568706518  1.0000
  Na  Na234     1.0  0.9099737911337212  0.8281923101117945  0.3016070749796091  1.0000
  Cl  Cl535     1.0  0.8722537810641181  0.8873723862074026  0.2204913749828651  1.0000
  Cl  Cl536     1.0  0.958350432892122  0.8670515914387757  0.20447127751976774  1.0000
  Cl  Cl537     1.0  0.9514651819174041  0.8936166678721618  0.27989268887255586  1.0000
  Na  Na235     1.0  0.9110655066035865  0.9256568627983566  0.218851734135132  1.0000
  Cl  Cl538     1.0  0.06108520229624038  0.9762913706421601  0.22933468381736014  1.0000
  Cl  Cl539     1.0  0.09108628775959221  0.9166460748860981  0.1872761385765106  1.0000
  Cl  Cl540     1.0  0.18466160408475962  0.9159802938609151  0.20312069315439665  1.0000
  Na  Na236     1.0  0.19924179500767872  0.9750693936673679  0.18533152039581324  1.0000
  Na  Na237     1.0  0.29008410090089953  0.9606186371922018  0.17617930570677684  1.0000
  Cl  Cl541     1.0  0.37248380716049634  0.9505781630981386  0.1754574915580459  1.0000
  Pu  Pu100     1.0  0.3777459584309639  0.9380048264082711  0.22564600882069447  1.0000
  Cl  Cl542     1.0  0.529525423386254  0.9557307292930326  0.23417090064314547  1.0000
  Na  Na238     1.0  0.48860056676685726  0.9987149582760388  0.18349917522650544  1.0000
  Cl  Cl543     1.0  0.40542962969237467  0.9880852059454006  0.21978010581310448  1.0000
  Na  Na239     1.0  0.5409822328910323  0.958981063987404  0.1313062849023279  1.0000
  Cl  Cl544     1.0  0.5374858486873543  0.010187132007467509  0.16190471240970256  1.0000
  Na  Na240     1.0  0.6401319145699053  0.9721250701274285  0.15075122612354017  1.0000
  Cl  Cl545     1.0  0.6424931628020758  0.98141912512183  0.22835668870893924  1.0000
  Cl  Cl546     1.0  0.5435605836314147  0.9060245931272015  0.15855492409014085  1.0000
  Cl  Cl547     1.0  0.6026579540096089  0.9458535989908623  0.2944240834222007  1.0000
  Cl  Cl548     1.0  0.7542471958148467  0.9551435186993931  0.19544953109995197  1.0000
  Na  Na241     1.0  0.678238573868419  0.8979132298918207  0.1339255749728302  1.0000
  Na  Na242     1.0  0.774611411085116  0.9138899068532755  0.2145551721154732  1.0000
  Na  Na243     1.0  0.7835767108527967  0.9790289298885646  0.23618478486217706  1.0000
  Cl  Cl549     1.0  0.8900934043103241  0.9500777935077839  0.27550101527787096  1.0000
  Na  Na244     1.0  0.8367006607907626  0.9265149346165271  0.1835928394514768  1.0000
  Cl  Cl550     1.0  0.8135389246289639  0.8721214519162557  0.17190714187375516  1.0000
  Cl  Cl551     1.0  0.897119255004646  0.938269484703996  0.16401701643245684  1.0000
  Pu  Pu101     1.0  0.9235168523602685  0.9937174653012961  0.26608290170734844  1.0000
  Cl  Cl552     1.0  0.02214424907331265  0.011932925643501532  0.29663439372009065  1.0000
  Na  Na245     1.0  0.9942161410640847  0.06350827305217788  0.3154168621448165  1.0000
  Cl  Cl553     1.0  0.10574112059247749  0.059698640943794186  0.2986213985809627  1.0000
  Pu  Pu102     1.0  0.23204949899147562  0.012794202308221876  0.2464795790372883  1.0000
  Cl  Cl554     1.0  0.22527796837820205  0.9770005721689855  0.295881771691623  1.0000
  Cl  Cl555     1.0  0.20152819456558957  0.055114263027534575  0.2671746171772136  1.0000
  Na  Na246     1.0  0.25903017165486714  0.08737031987617991  0.3282093689858314  1.0000
  Cl  Cl556     1.0  0.2814620298604871  0.02522276263975633  0.2739730271486468  1.0000
  Cl  Cl557     1.0  0.36380177447495865  0.04424032206623162  0.24767674429685635  1.0000
  Na  Na247     1.0  0.3910636465775579  0.07812981683380402  0.26953379776644876  1.0000
  Cl  Cl558     1.0  0.30580645778130644  0.026970334448714755  0.3397943723526015  1.0000
  Cl  Cl559     1.0  0.44240735594818686  0.05176013265780864  0.26969507391540615  1.0000
  Cl  Cl560     1.0  0.5071845414697894  0.06795453242035607  0.27676848039724095  1.0000
  Cl  Cl561     1.0  0.4101810731578106  0.09401303633458115  0.3192771515051163  1.0000
  Cl  Cl562     1.0  0.5443462879468479  0.016710173292770657  0.30334182740236837  1.0000
  Na  Na248     1.0  0.5571139830726387  0.07052771405340004  0.3129232847647836  1.0000
  Cl  Cl563     1.0  0.6112903632646981  0.07800100267893166  0.3037512207035678  1.0000
  Cl  Cl564     1.0  0.6427061300244169  0.059515034251135045  0.25120827843043536  1.0000
  Pu  Pu103     1.0  0.6635521060986228  0.06439239717133385  0.30423918443631054  1.0000
  Cl  Cl565     1.0  0.7129584340388282  0.03996712441174229  0.28663940777060526  1.0000
  Cl  Cl566     1.0  0.8060768012752831  0.9917986926572905  0.33934362619269504  1.0000
  Cl  Cl567     1.0  0.761299925867328  0.05505802313969304  0.34046428866365513  1.0000
  Pu  Pu104     1.0  0.8136174950605072  0.04057356408468066  0.3260362762607778  1.0000
  Cl  Cl568     1.0  0.8514863754214556  0.04584191828395428  0.3674987200433658  1.0000
  Na  Na249     1.0  0.9489447251792117  0.13512749581114955  0.32004011174826075  1.0000
  Na  Na250     1.0  0.9181781983011928  0.06914135946524738  0.3021984208591194  1.0000
  Cl  Cl569     1.0  0.9475573367695913  0.07845877882481832  0.34639842388811165  1.0000
  Cl  Cl570     1.0  0.8931969363562855  0.02264792689236408  0.29954977025893514  1.0000
  Cl  Cl571     1.0  0.03469422139801089  0.09757723922653871  0.30877145775059933  1.0000
  Na  Na251     1.0  0.05806913154644428  0.11964932756140761  0.24535684892339285  1.0000
  Cl  Cl572     1.0  0.13235065134897353  0.09446543660883588  0.2555999520251203  1.0000
  Pu  Pu105     1.0  0.15687703184810375  0.07355226213923106  0.30739027226978505  1.0000
  Cl  Cl573     1.0  0.18947776477407205  0.11477258493408941  0.3014437311877164  1.0000
  Cl  Cl574     1.0  0.20381500765208746  0.0717484504424311  0.3505047627577182  1.0000
  Na  Na252     1.0  0.255327023157654  0.11818977841334356  0.23985691871535994  1.0000
  Cl  Cl575     1.0  0.2716965522768256  0.18097251555950686  0.2610916116614118  1.0000
  Cl  Cl576     1.0  0.2910827724386739  0.10995580395189639  0.28528716929088593  1.0000
  Cl  Cl577     1.0  0.4139627920865671  0.15301922365932638  0.35568007302490107  1.0000
  Na  Na253     1.0  0.29850561057658304  0.1563880342938933  0.3128095644033393  1.0000
  Pu  Pu106     1.0  0.4239371016066989  0.15949983691159614  0.29459569778583483  1.0000
  Cl  Cl578     1.0  0.47939748806161125  0.12831978144650732  0.3018221098448856  1.0000
  Pu  Pu107     1.0  0.5407072363806307  0.1660129121579509  0.29183746211007694  1.0000
  Cl  Cl579     1.0  0.5482458625229194  0.12530309040383064  0.3252981277328576  1.0000
  Cl  Cl580     1.0  0.5890301194227123  0.151472213215097  0.2781620717356673  1.0000
  Na  Na254     1.0  0.6117307712099278  0.10154525278377027  0.257903306255101  1.0000
  Cl  Cl581     1.0  0.6791586749746501  0.1125664099220702  0.27576980885946656  1.0000
  Cl  Cl582     1.0  0.8305411524863529  0.07839695630105133  0.286407831761846  1.0000
  Na  Na255     1.0  0.7473764183406761  0.09553854329228292  0.2980383232731938  1.0000
  Cl  Cl583     1.0  0.9319962560381417  0.12155693493356219  0.27348299577296864  1.0000
  Cl  Cl584     1.0  0.0022303664343628184  0.1317766736701202  0.2533379506538466  1.0000
  Pu  Pu108     1.0  0.9932522456408421  0.18559514487007045  0.2622060712035658  1.0000
  Cl  Cl585     1.0  0.9448011687367688  0.19309758726099052  0.28480954377281986  1.0000
  Cl  Cl586     1.0  0.015037553540218697  0.17515706303953943  0.3114118377790422  1.0000
  Na  Na256     1.0  0.030804571508029125  0.25150601901312586  0.22599130519089802  1.0000
  Cl  Cl587     1.0  0.09703696412753159  0.14249161288969467  0.32092506292459083  1.0000
  Pu  Pu109     1.0  0.12783326506381928  0.18852520167375594  0.31795179238355653  1.0000
  Cl  Cl588     1.0  0.09581126539545567  0.23176416426639723  0.2896540311703466  1.0000
  Cl  Cl589     1.0  0.17679422271575015  0.19345094743864197  0.29055965877603024  1.0000
  Na  Na257     1.0  0.22011506396863129  0.19449924240686478  0.2427123336090793  1.0000
  Cl  Cl590     1.0  0.26754679290557676  0.28705086871474006  0.2944737068526492  1.0000
  Cl  Cl591     1.0  0.3079051153606874  0.21534087643090646  0.3196906800921865  1.0000
  Pu  Pu110     1.0  0.2809306456261019  0.23746879112502986  0.2785259768922891  1.0000
  Na  Na258     1.0  0.36358053668087614  0.2441390072344713  0.32250267448426345  1.0000
  Cl  Cl592     1.0  0.40788598949957133  0.26319026924079275  0.33406906906461536  1.0000
  Cl  Cl593     1.0  0.38890916263892245  0.20144259414806603  0.29976066983834093  1.0000
  Cl  Cl594     1.0  0.37503114325684844  0.13719493198220672  0.2583933376307791  1.0000
  Na  Na259     1.0  0.42343259673047334  0.206170466484039  0.36134748231069735  1.0000
  Na  Na260     1.0  0.5224871668343202  0.25698320514886996  0.2898856071791059  1.0000
  Cl  Cl595     1.0  0.4649157169424148  0.1936550237963611  0.2989212068065885  1.0000
  Cl  Cl596     1.0  0.65710933071207  0.21433600196432603  0.30922220391050576  1.0000
  Na  Na261     1.0  0.6051970195342196  0.23492145502867778  0.2816315765811858  1.0000
  Cl  Cl597     1.0  0.7100120428559534  0.1760041763501526  0.2767994950412712  1.0000
  Pu  Pu111     1.0  0.6970417187224984  0.23172901433649626  0.2722320717970815  1.0000
  Cl  Cl598     1.0  0.7746879138737238  0.1446802129367634  0.29318143001805497  1.0000
  Na  Na262     1.0  0.8108303123836544  0.2113627314232917  0.2724595125199701  1.0000
  Na  Na263     1.0  0.8869878046214273  0.19296897987041173  0.25389828188932667  1.0000
  Cl  Cl599     1.0  0.8412577458202756  0.15935489514182805  0.2667569533042728  1.0000
  Cl  Cl600     1.0  0.9803315449378355  0.23647425487312615  0.2510345964238659  1.0000
  Cl  Cl601     1.0  0.04666980251526871  0.2579487943996787  0.31392609158842866  1.0000
  Cl  Cl602     1.0  0.08596887149459918  0.32088577770881915  0.283041709063095  1.0000
  Pu  Pu112     1.0  0.10922758011006586  0.2830623854924485  0.3108639124011743  1.0000
  Cl  Cl603     1.0  0.14300087334467154  0.2791876226316013  0.26398217648503214  1.0000
  Cl  Cl604     1.0  0.19940286439234253  0.35826876197996016  0.27415291208402226  1.0000
  Na  Na264     1.0  0.2126467376861445  0.3169593237745882  0.30183038041662696  1.0000
  Cl  Cl605     1.0  0.226227016485528  0.23585809727839166  0.27287510874997556  1.0000
  Cl  Cl606     1.0  0.33846281030223563  0.2694118068332631  0.2746077935297994  1.0000
  Na  Na265     1.0  0.36717410010251567  0.3089492750430395  0.32076585441856886  1.0000
  Cl  Cl607     1.0  0.4425955114553038  0.33657918758813116  0.3134794807143929  1.0000
  Cl  Cl608     1.0  0.5085657269506038  0.3225274861994877  0.26754886054851207  1.0000
  Cl  Cl609     1.0  0.602670359867221  0.28879595935217606  0.2830396414201597  1.0000
  Pu  Pu113     1.0  0.6349255896586922  0.3173046201447917  0.250964296564064  1.0000
  Cl  Cl610     1.0  0.7233628132895131  0.2522689792562703  0.3178959660243021  1.0000
  Cl  Cl611     1.0  0.678951910681115  0.2965268762874524  0.27271176495808286  1.0000
  Cl  Cl612     1.0  0.8178230807910106  0.24982502530668574  0.31107067669470934  1.0000
  Na  Na266     1.0  0.7728911321629041  0.28077970769182137  0.3311226778817406  1.0000
  Na  Na267     1.0  0.7769044271004197  0.3501511958157732  0.38036772967298865  1.0000
  Na  Na268     1.0  0.8382679341357585  0.26553704397241584  0.36234201856260106  1.0000
  Cl  Cl613     1.0  0.8071685167451483  0.358845634358923  0.3047374863837301  1.0000
  Cl  Cl614     1.0  0.8846306916751275  0.2414097185598083  0.29219516433789267  1.0000
  Na  Na269     1.0  0.9396341290413273  0.2621316360578932  0.2837591811616617  1.0000
  Cl  Cl615     1.0  0.0054083543024262245  0.3403154183723099  0.302785631452759  1.0000
  Na  Na270     1.0  0.03755894068493931  0.423748946099582  0.23709041246786067  1.0000
  Cl  Cl616     1.0  0.010331101985055978  0.422917753639571  0.2884837452689381  1.0000
  Cl  Cl617     1.0  0.14817163479739665  0.32473572885444224  0.32935484317201574  1.0000
  Cl  Cl618     1.0  0.15918720929977112  0.410507760741596  0.3111968029137657  1.0000
  Cl  Cl619     1.0  0.08483931815901709  0.4219749084610511  0.2693477099022672  1.0000
  Na  Na271     1.0  0.15346314659754617  0.3401396687228051  0.26480923365917236  1.0000
  Cl  Cl620     1.0  0.28432985061181854  0.3551983122209643  0.32729340316547106  1.0000
  Cl  Cl621     1.0  0.3504737481136879  0.36107662108616645  0.28106917770277046  1.0000
  Pu  Pu114     1.0  0.30282078138265994  0.3952092706629361  0.2972898365305968  1.0000
  Cl  Cl622     1.0  0.331213654170896  0.27421287372914743  0.35444569019249667  1.0000
  Na  Na272     1.0  0.40389750627727977  0.3925544171339458  0.2728048088901736  1.0000
  Cl  Cl623     1.0  0.4614648208833145  0.3871661396444218  0.2626485467917309  1.0000
  Pu  Pu115     1.0  0.46225672812755375  0.3911732316531315  0.31929162500566377  1.0000
  Cl  Cl624     1.0  0.4070899469694613  0.39813912070232804  0.3315238006111986  1.0000
  Na  Na273     1.0  0.6069172984564314  0.38931235301131584  0.24562564250498845  1.0000
  Cl  Cl625     1.0  0.6513302687077648  0.36143639095691743  0.27467809338960136  1.0000
  Cl  Cl626     1.0  0.7440392426430202  0.3341497071390941  0.33598784170862084  1.0000
  Cl  Cl627     1.0  0.8046583982216325  0.4242658568334197  0.27231477751449545  1.0000
  Cl  Cl628     1.0  0.7359692322663464  0.3624826182822049  0.2575580098848974  1.0000
  Na  Na274     1.0  0.8193986247077478  0.4484345351047342  0.3234351814481066  1.0000
  Cl  Cl629     1.0  0.9190424730481696  0.40420765271758236  0.2970768693082557  1.0000
  Na  Na275     1.0  0.9516533374245211  0.3412396547644116  0.30840548495104225  1.0000
  Cl  Cl630     1.0  0.9523687418801524  0.3119184102982031  0.26594023434480923  1.0000
  Pu  Pu116     1.0  0.008186956261097285  0.4789736212598643  0.2951167438055432  1.0000
  Cl  Cl631     1.0  0.25363775887947243  0.42347601723211575  0.3101857255183792  1.0000
  Na  Na276     1.0  0.25927622116417387  0.48520963235288206  0.31503434820177667  1.0000
  Na  Na277     1.0  0.20369632494759832  0.4121474015893291  0.28514656957128204  1.0000
  Cl  Cl632     1.0  0.21864083455572625  0.5089999319670274  0.2943579188482695  1.0000
  Cl  Cl633     1.0  0.26521862696037185  0.46667114579452756  0.24450498003402835  1.0000
  Na  Na278     1.0  0.3885783397692663  0.4554273035120903  0.3507301358376715  1.0000
  Cl  Cl634     1.0  0.3275187762454243  0.43326217124513067  0.2566482469933431  1.0000
  Cl  Cl635     1.0  0.42345947608863294  0.49556852345898916  0.320625254698965  1.0000
  Cl  Cl636     1.0  0.48229425581403756  0.44122673183210165  0.29382653461388436  1.0000
  Pu  Pu117     1.0  0.445196606267975  0.4732441826860075  0.2703918695846193  1.0000
  Cl  Cl637     1.0  0.4851227913495973  0.5091694786877262  0.26321921624188765  1.0000
  Cl  Cl638     1.0  0.5760060365729381  0.4117152642158408  0.2897884279611444  1.0000
  Pu  Pu118     1.0  0.5963185607698236  0.4430545281869517  0.3322330021380239  1.0000
  Cl  Cl639     1.0  0.6409010777418558  0.45992856218234884  0.28042200546400564  1.0000
  Na  Na279     1.0  0.6206257711178066  0.479684890429625  0.23571956520172313  1.0000
  Cl  Cl640     1.0  0.7253498181503851  0.4897212292378173  0.3063853978032046  1.0000
  Na  Na280     1.0  0.7249983188513754  0.45257395626130636  0.2521676647524381  1.0000
  Cl  Cl641     1.0  0.7700005673392838  0.42071778155635786  0.34441555431311033  1.0000
  Na  Na281     1.0  0.8759093737738182  0.47508852018434033  0.29975860219540557  1.0000
  Cl  Cl642     1.0  0.8668593006457881  0.4246938589210373  0.34741983949817495  1.0000
  Cl  Cl643     1.0  0.867754590036795  0.4465198977465995  0.2564828355585151  1.0000
  Na  Na282     1.0  0.9629261267080531  0.40117855581729356  0.2522172881828865  1.0000
  Cl  Cl644     1.0  0.9376119742505543  0.46422719184494304  0.3177264193036033  1.0000
  Pu  Pu119     1.0  0.013120042158403794  0.5801165107284153  0.3293424373144036  1.0000
  Cl  Cl645     1.0  0.9828768133912522  0.5283923550576818  0.27849289460532345  1.0000
  Cl  Cl646     1.0  0.994312946466677  0.6020107817708441  0.2717978667806578  1.0000
  Cl  Cl647     1.0  0.091942912227708  0.5648180206497554  0.24308244169450707  1.0000
  Na  Na283     1.0  0.25094155249177513  0.5176178677215691  0.24748858878973942  1.0000
  Cl  Cl648     1.0  0.14654357275010146  0.5660751475544487  0.2934109383838789  1.0000
  Cl  Cl649     1.0  0.26539437660987664  0.571436545685813  0.22057408070027915  1.0000
  Na  Na284     1.0  0.29156453324261067  0.5857880553000824  0.29012958904547725  1.0000
  Na  Na285     1.0  0.3279219666178177  0.5500447118766745  0.3371891422540596  1.0000
  Cl  Cl650     1.0  0.33869852159686564  0.5098001097830082  0.2358560296354563  1.0000
  Na  Na286     1.0  0.3639878623391402  0.5059212116362902  0.2861431734661211  1.0000
  Cl  Cl651     1.0  0.4221858080404569  0.5089213615354842  0.23285587973626243  1.0000
  Cl  Cl652     1.0  0.5538781218788148  0.4794450438491243  0.26313237523860294  1.0000
  Pu  Pu120     1.0  0.5696625080472821  0.5244348864794206  0.286608393126575  1.0000
  Na  Na287     1.0  0.4587789527102939  0.5493809984944269  0.21902955142757216  1.0000
  Cl  Cl653     1.0  0.6180949761649372  0.5265624910598964  0.25159079237347526  1.0000
  Cl  Cl654     1.0  0.6968680367159289  0.5520668666674475  0.278956046622842  1.0000
  Na  Na288     1.0  0.6402042820726426  0.5272427455856268  0.3528598080610827  1.0000
  Cl  Cl655     1.0  0.8256553122301191  0.49776849554220237  0.29814377306289663  1.0000
  Cl  Cl656     1.0  0.8245739349749306  0.5297714728955607  0.2404875498106419  1.0000
  Pu  Pu121     1.0  0.8352264313778575  0.5594793665906799  0.2864636581211004  1.0000
  Na  Na289     1.0  0.9428989372362462  0.4894855179431874  0.24770982658382196  1.0000
  Cl  Cl657     1.0  0.9115658761939414  0.5211225224969888  0.28787792588888034  1.0000
  Cl  Cl658     1.0  0.9552510361320313  0.5713372988249162  0.3321606346352866  1.0000
  Pu  Pu122     1.0  0.9381020056262325  0.5649606880122946  0.2732245404060498  1.0000
  Cl  Cl659     1.0  0.007781698245768545  0.6333665868854378  0.21008492808924498  1.0000
  Pu  Pu123     1.0  0.04064923981611449  0.5908579157775623  0.23760318791582766  1.0000
  Cl  Cl660     1.0  0.16785724965628374  0.6474720469904003  0.33176157954876395  1.0000
  Na  Na290     1.0  0.17819608462591793  0.6178964824431437  0.29574737490082514  1.0000
  Cl  Cl661     1.0  0.2302010262072721  0.6036710990479307  0.3363331380788244  1.0000
  Cl  Cl662     1.0  0.28821908697321325  0.5851718977053478  0.36057211620994084  1.0000
  Cl  Cl663     1.0  0.2729908967543552  0.6531994179213217  0.27963423350563704  1.0000
  Cl  Cl664     1.0  0.38535074914718387  0.5635340143869025  0.30574236085031054  1.0000
  Cl  Cl665     1.0  0.3238962658226898  0.6218870333083706  0.3064453594483298  1.0000
  Pu  Pu124     1.0  0.37398078064569024  0.6098698925681122  0.27471944624830835  1.0000
  Cl  Cl666     1.0  0.40349224826195107  0.6421726781470964  0.3164300071831384  1.0000
  Cl  Cl667     1.0  0.518618606902279  0.6006771520775429  0.33219371692225225  1.0000
  Cl  Cl668     1.0  0.5548685228448477  0.5561483938218298  0.24023322972959377  1.0000
  Na  Na291     1.0  0.5381805767136321  0.6714629079692748  0.34957845872268106  1.0000
  Cl  Cl669     1.0  0.6159218834398837  0.6476602024975172  0.2664530097927762  1.0000
  Pu  Pu125     1.0  0.6523702931042462  0.6829403939034064  0.2855146100137745  1.0000
  Pu  Pu126     1.0  0.7338168159706462  0.5542378917495657  0.24132494519945893  1.0000
  Cl  Cl670     1.0  0.752669584255174  0.6097127517050255  0.2647451367281765  1.0000
  Cl  Cl671     1.0  0.7677158218957213  0.544753613605112  0.28287422998533157  1.0000
  Cl  Cl672     1.0  0.8376993323285369  0.6062225704301535  0.2546467686319236  1.0000
  Na  Na292     1.0  0.8892994294231495  0.6574463565105322  0.31485859855227183  1.0000
  Cl  Cl673     1.0  0.8823997049478841  0.5637697256815326  0.2560114129692551  1.0000
  Cl  Cl674     1.0  0.9347338152845462  0.6281003003290995  0.29085533171578537  1.0000
  Pu  Pu127     1.0  0.9485994288090082  0.6668706730098607  0.24237944309648782  1.0000
  Cl  Cl675     1.0  0.061033924751443674  0.6876856344400364  0.19665496693126144  1.0000
  Cl  Cl676     1.0  0.034820140852773754  0.7082669522185175  0.2943537835623988  1.0000
  Na  Na293     1.0  0.13547134483129838  0.6978418965384791  0.2702471345791448  1.0000
  Cl  Cl677     1.0  0.29754002132577423  0.7113580784068667  0.317771907448181  1.0000
  Cl  Cl678     1.0  0.1864201344012754  0.7575554245114078  0.30989212022155943  1.0000
  Pu  Pu128     1.0  0.23655696059054018  0.7331758466606875  0.3062137834395705  1.0000
  Cl  Cl679     1.0  0.1973395635071561  0.7004161119929908  0.2746367405308944  1.0000
  Na  Na294     1.0  0.2426316955346006  0.6826509238924574  0.24793519966377517  1.0000
  Na  Na295     1.0  0.3251906103002194  0.6701230753471673  0.2669327029537776  1.0000
  Cl  Cl680     1.0  0.42427205976222576  0.7321337546212708  0.30293450174410425  1.0000
  Na  Na296     1.0  0.45240440954060757  0.8254712920088728  0.28312855006637977  1.0000
  Cl  Cl681     1.0  0.4885881609092451  0.6687956485826722  0.32412990947438447  1.0000
  Cl  Cl682     1.0  0.5431863402601163  0.7223269241789024  0.19907886474437309  1.0000
  Pu  Pu129     1.0  0.5679773790549713  0.7459476770723489  0.24721152463640245  1.0000
  Cl  Cl683     1.0  0.6157130515034133  0.7080663908537884  0.23669135738133798  1.0000
  Cl  Cl684     1.0  0.6041962803535098  0.7506991205377849  0.30601735736071217  1.0000
  Cl  Cl685     1.0  0.5876365280842859  0.8124575473737754  0.277570725856157  1.0000
  Cl  Cl686     1.0  0.7045700066501104  0.6833249754893816  0.24632243817420163  1.0000
  Na  Na297     1.0  0.748306857661584  0.7245268962621155  0.23799397243060896  1.0000
  Na  Na298     1.0  0.7956372720946974  0.6166021379656141  0.2169515702775447  1.0000
  Cl  Cl687     1.0  0.8083139909313326  0.688508556328306  0.2728709734641048  1.0000
  Cl  Cl688     1.0  0.8487426132462451  0.7474715299157024  0.26700300281357947  1.0000
  Cl  Cl689     1.0  0.8738520690531443  0.7071607632481048  0.32251508034187554  1.0000
  Na  Na299     1.0  0.8991806950111906  0.7424678340121537  0.28407966581664107  1.0000
  Cl  Cl690     1.0  0.8963170095457298  0.687454058431277  0.2340178950659295  1.0000
  Cl  Cl691     1.0  0.8694665983872654  0.7927467072710771  0.30785962721610965  1.0000
  Cl  Cl692     1.0  0.9495918974179763  0.7088624333838984  0.281768041014919  1.0000
  Cl  Cl693     1.0  0.9789441565282152  0.8458665219231724  0.3130514786267753  1.0000
  Pu  Pu130     1.0  0.037633789359199005  0.8194606539958083  0.3029551781734578  1.0000
  Cl  Cl694     1.0  0.09998521618904815  0.7335211430308911  0.2618090837599785  1.0000
  Cl  Cl695     1.0  0.08013625753826835  0.7885824743992808  0.33178225597811745  1.0000
  Cl  Cl696     1.0  0.2637671416197556  0.7356942357559447  0.25803356776002806  1.0000
  Na  Na300     1.0  0.28259509818905926  0.7934435029402902  0.32541805102310795  1.0000
  Cl  Cl697     1.0  0.3180158893145524  0.7877430113675282  0.2846337941233151  1.0000
  Na  Na301     1.0  0.35357314487377867  0.730566481276275  0.3164548188983626  1.0000
  Cl  Cl698     1.0  0.3971507873792304  0.8383754515683968  0.30598013978787586  1.0000
  Cl  Cl699     1.0  0.513978816155352  0.7797122862066261  0.32628646105595527  1.0000
  Cl  Cl700     1.0  0.5223052142560093  0.7776012227696331  0.2287061203650135  1.0000
  Cl  Cl701     1.0  0.6116997565658975  0.8608093774169518  0.3146869841886377  1.0000
  Pu  Pu131     1.0  0.6466532603880014  0.8256242975860888  0.2879854433215186  1.0000
  Cl  Cl702     1.0  0.7088210805251914  0.8186997613955992  0.28698470414080884  1.0000
  Cl  Cl703     1.0  0.7877657554398171  0.7884067247497758  0.32403893318522903  1.0000
  Pu  Pu132     1.0  0.8064034888590685  0.7389507733791221  0.30229973536295157  1.0000
  Cl  Cl704     1.0  0.7887354799764966  0.7650754418672784  0.2487787979813983  1.0000
  Cl  Cl705     1.0  0.8088784574526834  0.8289387292114561  0.25821138505246827  1.0000
  Cl  Cl706     1.0  0.9429878458824663  0.7899036982349698  0.2669223647391008  1.0000
  Na  Na302     1.0  0.9874525072071834  0.7478437056440655  0.2694800390501297  1.0000
  Cl  Cl707     1.0  0.08090562747451235  0.8565417623983881  0.32209534882599933  1.0000
  Cl  Cl708     1.0  0.10907436776855638  0.8783099072217604  0.24587169201429518  1.0000
  Cl  Cl709     1.0  0.13412530928038505  0.8196095242871536  0.29348123824368083  1.0000
  Pu  Pu133     1.0  0.1277832281047838  0.8778260787748883  0.2976764857595074  1.0000
  Cl  Cl710     1.0  0.16809978417260038  0.8623042832592106  0.25847190806232245  1.0000
  Na  Na303     1.0  0.19017001162882746  0.8033805948875858  0.28042200546400564  1.0000
  Na  Na304     1.0  0.2640173264149331  0.8879430556575594  0.3704182318680809  1.0000
  Cl  Cl711     1.0  0.2919697912579394  0.8499480490775547  0.3354729986177185  1.0000
  Cl  Cl712     1.0  0.35670769156377036  0.8777144260563795  0.3472709692068297  1.0000
  Pu  Pu134     1.0  0.3451309587687417  0.8360514209090625  0.3115999932861591  1.0000
  Cl  Cl713     1.0  0.4459202812953478  0.7874556089995145  0.3677344313379957  1.0000
  Cl  Cl714     1.0  0.37087724859972887  0.915324851050409  0.2729764232538077  1.0000
  Cl  Cl715     1.0  0.4718526589905164  0.868149509837447  0.24973611666046566  1.0000
  Na  Na305     1.0  0.5032580875355585  0.9095189096879441  0.24330574713152495  1.0000
  Cl  Cl716     1.0  0.6328062556499576  0.9072734494601533  0.1652094261132736  1.0000
  Na  Na306     1.0  0.726334016187612  0.8757873828406325  0.2735140104169989  1.0000
  Cl  Cl717     1.0  0.6716758751916159  0.8752270516051526  0.28454695312003037  1.0000
  Cl  Cl718     1.0  0.7459083918565772  0.9244679681105298  0.26857441144444605  1.0000
  Cl  Cl719     1.0  0.8036307796827632  0.9045048755697186  0.30685061746365855  1.0000
  Cl  Cl720     1.0  0.8715073619644566  0.8724708835723299  0.31199284544387573  1.0000
  Na  Na307     1.0  0.839297620317563  0.8875750152150671  0.26419721135030855  1.0000
  Na  Na308     1.0  0.9980560703444001  0.9050796803057461  0.2334348197581606  1.0000
  Pu  Pu135     1.0  0.06273704223729207  0.9780323259937255  0.28222292246069614  1.0000
  Cl  Cl721     1.0  0.03877905678108977  0.9313325426558942  0.2798451330850428  1.0000
  Cl  Cl722     1.0  0.11788893636625002  0.9872643517000664  0.26580583755401144  1.0000
  Na  Na309     1.0  0.17157363106828313  0.9913272700680307  0.28711083035986523  1.0000
  Cl  Cl723     1.0  0.17816817144629069  0.9998224914066501  0.22519939794665872  1.0000
  Na  Na310     1.0  0.13167970121645223  0.9335945440271679  0.22942566010651558  1.0000
  Cl  Cl724     1.0  0.24883462434065276  0.9823971202302509  0.20129765237829794  1.0000
  Na  Na311     1.0  0.3875548565162677  0.9292814408640263  0.33648407601310504  1.0000
  Cl  Cl725     1.0  0.28343869650668235  0.9501935815121634  0.28175770280024226  1.0000
  Na  Na312     1.0  0.4037134860560336  0.03679473985603369  0.1865592867708245  1.0000
  Cl  Cl726     1.0  0.43893991874560373  0.9324986932714321  0.34700010798229874  1.0000
  Cl  Cl727     1.0  0.3698827123478251  0.9771370366027186  0.3088231488239831  1.0000
  Na  Na313     1.0  0.4254733603076645  0.9979271863176702  0.2875863882349959  1.0000
  Pu  Pu136     1.0  0.5208392554148457  0.0034511648526819425  0.2576800008180831  1.0000
  Cl  Cl728     1.0  0.48056777396301975  0.968101436975236  0.2775872669996398  1.0000
  Na  Na314     1.0  0.5816858517163466  0.9875041982805671  0.32666070442725376  1.0000
  Na  Na315     1.0  0.6055505864761646  0.003591516455133549  0.2851300284277993  1.0000
  Cl  Cl729     1.0  0.642087904786747  0.009219495790152727  0.31879332305824426  1.0000
  Cl  Cl730     1.0  0.5156577422188567  0.8913774105731769  0.30408411121615925  1.0000
  Na  Na316     1.0  0.696320111338061  0.9616255793017175  0.20532087200190335  1.0000
  Cl  Cl731     1.0  0.7192316627046823  0.9667864160683529  0.31901662849526213  1.0000
  Pu  Pu137     1.0  0.7609877117840901  0.9352817406624141  0.3247708787843432  1.0000
  Cl  Cl732     1.0  0.8172751554131426  0.9328336514269588  0.23341621097174245  1.0000
  Na  Na317     1.0  0.73575419740107  0.9346407713524554  0.4002998075697695  1.0000
  Cl  Cl733     1.0  0.8852902697715045  0.9433951715407304  0.3552582738660895  1.0000
  Pu  Pu138     1.0  0.9092563190351546  0.9101619466408383  0.31199698072974646  1.0000
  Cl  Cl734     1.0  0.9448921450259242  0.9662405583334203  0.3150632952028716  1.0000
  Cl  Cl735     1.0  0.9866399235335905  0.017492528026648663  0.3567573149942188  1.0000
  Cl  Cl736     1.0  0.08758514797716284  0.9826969284558768  0.33993910735807603  1.0000
  Cl  Cl737     1.0  0.15741668665423028  0.01917720213751372  0.33075463743924816  1.0000
  Cl  Cl738     1.0  0.28923636729740576  0.09355071137423673  0.3748140407486366  1.0000
  Na  Na318     1.0  0.35391637360104694  0.9892162066310376  0.3582832354805076  1.0000
  Cl  Cl739     1.0  0.3537861120961198  0.061474952989553994  0.4020283570637227  1.0000
  Na  Na319     1.0  0.4051091450373953  0.10399892465515097  0.3747334026741579  1.0000
  Pu  Pu139     1.0  0.46938596096864305  0.07277875691711636  0.31714127635289907  1.0000
  Cl  Cl740     1.0  0.45552034744418113  0.017365367986124595  0.3317636471916993  1.0000
  Na  Na320     1.0  0.45011966409704507  0.1289863895288644  0.4255457278104018  1.0000
  Cl  Cl741     1.0  0.4599595768263791  0.10063673047797717  0.3773551739161826  1.0000
  Cl  Cl742     1.0  0.5087683559582682  0.05921791396132514  0.3558620256032119  1.0000
  Cl  Cl743     1.0  0.5416852314890516  0.9532288813412584  0.35335604236556684  1.0000
  Na  Na321     1.0  0.5586150918437033  0.028811984011231636  0.40422419386106523  1.0000
  Cl  Cl744     1.0  0.5919206842463326  0.05108732164664552  0.35800823897010603  1.0000
  Na  Na322     1.0  0.7014230541025066  0.1201844335530764  0.3711832597541608  1.0000
  Cl  Cl745     1.0  0.683604107285654  0.04777619824997488  0.42062266998133174  1.0000
  Cl  Cl746     1.0  0.6571279394984881  0.08708291750816616  0.3570715967203921  1.0000
  Pu  Pu140     1.0  0.7404704909366049  0.03314369596079139  0.43387626119692985  1.0000
  Cl  Cl747     1.0  0.8720387461988417  0.9714985743180172  0.4284507661345695  1.0000
  Na  Na323     1.0  0.8741994330662832  0.1033912443964514  0.37198343757014146  1.0000
  Cl  Cl748     1.0  0.9074037109650803  0.02514977484413845  0.3819474088755966  1.0000
  Cl  Cl749     1.0  0.8687532615745693  0.08198679796540724  0.42096589870859996  1.0000
  Pu  Pu141     1.0  0.9576288255076846  0.041738474114457254  0.39486190664979715  1.0000
  Cl  Cl750     1.0  0.06776596338465207  0.06873486086415742  0.367924654488048  1.0000
  Pu  Pu142     1.0  0.04762319267275893  0.13837596962687906  0.35269232898331926  1.0000
  Cl  Cl751     1.0  0.07482985870898426  0.13732870848012393  0.4035914951228479  1.0000
  Pu  Pu143     1.0  0.10617904736618478  0.035583928153092304  0.3543361051169231  1.0000
  Cl  Cl752     1.0  0.14080710419026446  0.07896535134397924  0.36167210225154744  1.0000
  Na  Na324     1.0  0.18614699876951557  0.02970251782348719  0.38975069331361023  1.0000
  Cl  Cl753     1.0  0.24802824359586595  0.159823216266685  0.3289971409442001  1.0000
  Cl  Cl754     1.0  0.34646665610497823  0.13589851986174184  0.36399820055381704  1.0000
  Cl  Cl755     1.0  0.39189897432343956  0.11960921528846183  0.42591583589582954  1.0000
  Pu  Pu144     1.0  0.3347679323767639  0.11384235237747513  0.40532211225973647  1.0000
  Cl  Cl756     1.0  0.4719581087802194  0.1716509609140652  0.3993135418896072  1.0000
  Na  Na325     1.0  0.38886780978021546  0.17608295354598952  0.4201533150350071  1.0000
  Cl  Cl757     1.0  0.4883462466858091  0.1331987984810544  0.4686519477265935  1.0000
  Na  Na326     1.0  0.6036979784060903  0.11085584892165457  0.35012431645761366  1.0000
  Cl  Cl758     1.0  0.5160650678771208  0.18495438232440528  0.34225486744566885  1.0000
  Na  Na327     1.0  0.48544327600457676  0.13597233471453385  0.3566539328474513  1.0000
  Cl  Cl759     1.0  0.6600371131085266  0.1530736026685261  0.33959174334493714  1.0000
  Cl  Cl760     1.0  0.7355557036792761  0.08754979128296835  0.41413440645020116  1.0000
  Na  Na328     1.0  0.7036354320433318  0.18932930801131387  0.3243304708391135  1.0000
  Na  Na329     1.0  0.8119137572817782  0.08907281706914769  0.41829450403612684  1.0000
  Cl  Cl761     1.0  0.8128317907450738  0.10897636149342074  0.34833994060440604  1.0000
  Cl  Cl762     1.0  0.7420832524261785  0.15135063581049835  0.35409005560761636  1.0000
  Pu  Pu145     1.0  0.8236310897964106  0.14862424183594491  0.31960797437477245  1.0000
  Cl  Cl763     1.0  0.8800777419314854  0.12866321693806906  0.3301943062037681  1.0000
  Cl  Cl764     1.0  0.0039043508312521127  0.1262467626395247  0.3807977994035416  1.0000
  Cl  Cl765     1.0  0.9450472182460755  0.10815592077667359  0.4133631756353154  1.0000
  Na  Na330     1.0  0.02538052379572359  0.2916575771747015  0.3739890512174317  1.0000
  Cl  Cl766     1.0  0.06817742432878686  0.19430095544936468  0.3586016524925516  1.0000
  Cl  Cl767     1.0  0.1452266909645766  0.23922628762007797  0.3392815969046345  1.0000
  Na  Na331     1.0  0.19061331427416667  0.14338752257358214  0.3492931239976027  1.0000
  Cl  Cl768     1.0  0.14851341617461009  0.16833714958157864  0.3663842605012117  1.0000
  Cl  Cl769     1.0  0.2217505695304937  0.19189835435848712  0.3869035489916322  1.0000
  Na  Na332     1.0  0.2575311305267379  0.14695027811548497  0.37842828059962963  1.0000
  Cl  Cl770     1.0  0.3782856132370905  0.21735269300700275  0.38859488091274913  1.0000
  Na  Na333     1.0  0.44260584966998057  0.3074977897024233  0.36322696973893115  1.0000
  Cl  Cl771     1.0  0.4528324116282252  0.2499077310240998  0.3975973982532662  1.0000
  Cl  Cl772     1.0  0.5231281361442789  0.23494626674390198  0.4084297795915685  1.0000
  Na  Na334     1.0  0.5717260156967622  0.22089663299819387  0.42343259673047334  1.0000
  Na  Na335     1.0  0.4840641581666978  0.22055133662799029  0.353610362446615  1.0000
  Cl  Cl773     1.0  0.5614705067374226  0.2703587872976537  0.33384783127053286  1.0000
  Pu  Pu146     1.0  0.6482536160199629  0.18691636870575956  0.37918297027103265  1.0000
  Cl  Cl774     1.0  0.6038054958387286  0.22066298934649922  0.3691052786041333  1.0000
  Cl  Cl775     1.0  0.6966447312789111  0.21889928992264507  0.3713982946194372  1.0000
  Cl  Cl776     1.0  0.7916570594441472  0.22123779408252672  0.4303819446361871  1.0000
  Na  Na336     1.0  0.7762882695056854  0.1855988666273541  0.3942271402686445  1.0000
  Cl  Cl777     1.0  0.8352657165936291  0.19608884629556242  0.3517205368037044  1.0000
  Cl  Cl778     1.0  0.8865763436772925  0.2563422358389112  0.39216983554797047  1.0000
  Na  Na337     1.0  0.9002641399093143  0.2256108588907935  0.3422135145869618  1.0000
  Na  Na338     1.0  0.04739637224275095  0.21173283950871946  0.30915603933657454  1.0000
  Cl  Cl779     1.0  0.9864331592400555  0.20711786047701666  0.3926577992807133  1.0000
  Cl  Cl780     1.0  0.9339315698256301  0.210839617760648  0.4415099989142447  1.0000
  Na  Na339     1.0  0.056496275565522995  0.3497004496558668  0.3192502721469568  1.0000
  Cl  Cl781     1.0  0.0884326748163631  0.30396418792590896  0.3578635039646314  1.0000
  Na  Na340     1.0  0.20552164013092591  0.21858294055353641  0.33474312066153966  1.0000
  Na  Na341     1.0  0.16967863631803418  0.3035485916959034  0.40021710185235554  1.0000
  Cl  Cl782     1.0  0.14031066312148674  0.3442832251652479  0.4027913173068671  1.0000
  Cl  Cl783     1.0  0.22093178292809482  0.26999488214103196  0.35821293562070566  1.0000
  Cl  Cl784     1.0  0.39141514587656745  0.3204453697635895  0.3740014570750438  1.0000
  Cl  Cl785     1.0  0.3411321373317734  0.26716841424840754  0.4395788204126271  1.0000
  Cl  Cl786     1.0  0.48087378511745166  0.2655804644740582  0.33210687591896754  1.0000
  Na  Na342     1.0  0.51184500864607  0.2857544565942752  0.3794248844944687  1.0000
  Cl  Cl787     1.0  0.5671358483802835  0.3018634627035926  0.3935985768162979  1.0000
  Cl  Cl788     1.0  0.6287681489972178  0.27256909759554365  0.4110453479047872  1.0000
  Cl  Cl789     1.0  0.5984916534948771  0.3480153206635559  0.3277193376101533  1.0000
  Pu  Pu147     1.0  0.6069048925988192  0.3049215066049763  0.3537571650950249  1.0000
  Na  Na343     1.0  0.6880702160260116  0.35394532060214184  0.32278387392347113  1.0000
  Cl  Cl790     1.0  0.7272644555085198  0.2676481074094089  0.41266844760903754  1.0000
  Cl  Cl791     1.0  0.6624893376298525  0.30645983294887724  0.3399866631455891  1.0000
  Na  Na344     1.0  0.9249269848421777  0.34038778587504714  0.4401308810763657  1.0000
  Cl  Cl792     1.0  0.8267759747010792  0.3153982533583984  0.3646060875768101  1.0000
  Na  Na345     1.0  0.6916699823764573  0.27200669871712824  0.36486040765785827  1.0000
  Cl  Cl793     1.0  0.8300201064666445  0.2823428457509465  0.42812614619371947  1.0000
  Na  Na346     1.0  0.8241728122454727  0.3365419700152948  0.4107186603210018  1.0000
  Cl  Cl794     1.0  0.9520813395121387  0.2559452483953239  0.3503848394674679  1.0000
  Cl  Cl795     1.0  0.9689057500770875  0.30270085809240965  0.3928149401438  1.0000
  Pu  Pu148     1.0  0.9407713326557702  0.254260119403013  0.409240295622226  1.0000
  Cl  Cl796     1.0  0.8768790983104977  0.3632476461682847  0.4093664218412824  1.0000
  Na  Na347     1.0  0.04186687474074253  0.41368572793323005  0.33756752091122877  1.0000
  Pu  Pu149     1.0  0.15131197088760728  0.38079573176060616  0.3587836050708625  1.0000
  Cl  Cl797     1.0  0.09655024098055001  0.3748450553926669  0.3382622489375066  1.0000
  Cl  Cl798     1.0  0.08713915739600768  0.38319212992267776  0.4469189528331221  1.0000
  Cl  Cl799     1.0  0.2042345324036701  0.3704885317278829  0.3573900137324361  1.0000
  Na  Na348     1.0  0.2375328880560257  0.4153708569255409  0.3624598742099161  1.0000
  Cl  Cl800     1.0  0.329545066322068  0.4080410627197226  0.3430674511192616  1.0000
  Cl  Cl801     1.0  0.3835973879380064  0.3668618860192777  0.4362499152867125  1.0000
  Na  Na349     1.0  0.3758044417146696  0.3746672381002267  0.36530495088895865  1.0000
  Na  Na350     1.0  0.36608858756145657  0.31270824989950713  0.42224990497145276  1.0000
  Cl  Cl802     1.0  0.4611153892272402  0.4355593225463053  0.3495722557938751  1.0000
  Cl  Cl803     1.0  0.460100176545983  0.3548157982779244  0.386353555970829  1.0000
  Na  Na351     1.0  0.4705417733695041  0.44947249185828025  0.4001095844197172  1.0000
  Cl  Cl804     1.0  0.5458081115021409  0.45820001268839566  0.3460903450907444  1.0000
  Na  Na352     1.0  0.5522095340299867  0.3334136262541092  0.2952408023816642  1.0000
  Cl  Cl805     1.0  0.5144523063875472  0.3691321579622928  0.3308352755137268  1.0000
  Na  Na353     1.0  0.7489871121873145  0.3853776285053434  0.30752260141764753  1.0000
  Cl  Cl806     1.0  0.7053495080367376  0.4208252989889961  0.29789152062478386  1.0000
  Na  Na354     1.0  0.7805228022372837  0.4376703859832984  0.4023136917888011  1.0000
  Cl  Cl807     1.0  0.9155853740602631  0.4259551211116012  0.40135844075266913  1.0000
  Cl  Cl808     1.0  0.8104850160134509  0.3881007142512003  0.3930341102949471  1.0000
  Cl  Cl809     1.0  0.9289795649954651  0.3487555368344115  0.36234408620553643  1.0000
  Na  Na355     1.0  0.8638364066743053  0.3712018685405789  0.35556635266345676  1.0000
  Cl  Cl810     1.0  0.05377298305537257  0.4642850858471328  0.3291956346659937  1.0000
  Na  Na356     1.0  0.966085485113269  0.4562440224715539  0.4153253687809632  1.0000
  Cl  Cl811     1.0  0.14759455565414023  0.4770527809729235  0.32677649243163337  1.0000
  Cl  Cl812     1.0  0.12646696661213955  0.4271192040842037  0.3770595009764275  1.0000
  Pu  Pu150     1.0  0.14919511805039523  0.4885219963353139  0.38028709159850993  1.0000
  Cl  Cl813     1.0  0.09428224344476382  0.49404467061563573  0.39329670094773667  1.0000
  Na  Na357     1.0  0.10162485703678127  0.44746481056805476  0.31105827083709725  1.0000
  Cl  Cl814     1.0  0.2033346941982055  0.4455853231398209  0.39715905795097184  1.0000
  Na  Na358     1.0  0.2917857710366932  0.4035811569081711  0.41883209119931797  1.0000
  Cl  Cl815     1.0  0.2626216674335713  0.4649901520880874  0.3734204494102102  1.0000
  Cl  Cl816     1.0  0.3437084204292204  0.402648649944328  0.4052394065423224  1.0000
  Na  Na359     1.0  0.3672071823894813  0.507170067969242  0.4456969758583299  1.0000
  Na  Na360     1.0  0.39946034453801715  0.5395927768384766  0.3556986818113192  1.0000
  Cl  Cl817     1.0  0.3965553062138493  0.4588078997113888  0.39960507954349167  1.0000
  Na  Na361     1.0  0.5091653434018555  0.3794807108537232  0.38665129655351943  1.0000
  Cl  Cl818     1.0  0.5173015183524605  0.4281323491225255  0.40333303975592905  1.0000
  Na  Na362     1.0  0.5025075331500262  0.48366717072311044  0.33169127968896206  1.0000
  Cl  Cl819     1.0  0.6017730028332787  0.4969910617985105  0.32636503148749857  1.0000
  Cl  Cl820     1.0  0.6425696655906837  0.40768336049190695  0.3444755159582355  1.0000
  Cl  Cl821     1.0  0.6620902825433299  0.47741875377248055  0.3562652159756053  1.0000
  Cl  Cl822     1.0  0.7110499996094996  0.39062737391819885  0.36222829820115676  1.0000
  Pu  Pu151     1.0  0.7124828761636975  0.44889561947931744  0.34269527539089856  1.0000
  Na  Na363     1.0  0.7996381611746011  0.4763932028765467  0.4580470071111797  1.0000
  Cl  Cl823     1.0  0.8126581087385045  0.4747184120989125  0.3685077297958169  1.0000
  Na  Na364     1.0  0.8531322191979948  0.4673472650343873  0.40785911014141174  1.0000
  Pu  Pu152     1.0  0.9249455936285957  0.41949373693863024  0.3485963283283895  1.0000
  Cl  Cl824     1.0  0.9789958476015989  0.4181683778170704  0.3594866036688817  1.0000
  Cl  Cl825     1.0  0.06108478876765331  0.576624261810608  0.3653876566063727  1.0000
  Cl  Cl826     1.0  0.13862263942906639  0.557157403574281  0.3685035945099462  1.0000
  Na  Na365     1.0  0.09828706104624463  0.5599549244658105  0.3243573501972731  1.0000
  Cl  Cl827     1.0  0.05174793356449007  0.5662674383474362  0.2975979153279641  1.0000
  Pu  Pu153     1.0  0.23231622493013587  0.49073230663320383  0.41995895659908417  1.0000
  Cl  Cl828     1.0  0.20551729808076172  0.5251006675046035  0.38106245769926644  1.0000
  Cl  Cl829     1.0  0.29169479474753773  0.5336090181835716  0.2926045576390921  1.0000
  Cl  Cl830     1.0  0.26637030407536216  0.527538418525382  0.43943615305008793  1.0000
  Na  Na366     1.0  0.30948065927742463  0.5709485819530702  0.4069141973199565  1.0000
  Cl  Cl831     1.0  0.35053164211587773  0.5018293462672312  0.34162216870745155  1.0000
  Na  Na367     1.0  0.4093498806977996  0.5911432505026407  0.40609541071755756  1.0000
  Cl  Cl832     1.0  0.4483373558867727  0.5758985191402999  0.3539101706722408  1.0000
  Na  Na368     1.0  0.5509813541263884  0.49422662319394656  0.39583990175821804  1.0000
  Cl  Cl833     1.0  0.5419540250706472  0.5342396492788537  0.33917614711493166  1.0000
  Cl  Cl834     1.0  0.6204003980378533  0.57265645501767  0.3164010601820435  1.0000
  Na  Na369     1.0  0.7735672514027637  0.5047364522343343  0.34384488486295356  1.0000
  Na  Na370     1.0  0.7057134131933593  0.5708865526650098  0.42843422499108674  1.0000
  Cl  Cl835     1.0  0.6734064923285045  0.548833073116559  0.39476265978890035  1.0000
  Na  Na371     1.0  0.650412235244469  0.5864455657535239  0.2762929225221103  1.0000
  Cl  Cl836     1.0  0.7442976980099391  0.4826995138293663  0.3856546926586804  1.0000
  Cl  Cl837     1.0  0.7957964806007194  0.5678905380516865  0.3488341072659548  1.0000
  Na  Na372     1.0  0.8408628260196237  0.5492941574911422  0.3766459723893573  1.0000
  Cl  Cl838     1.0  0.9095168420450088  0.468625068368434  0.4633236318821948  1.0000
  Na  Na373     1.0  0.9451630062504551  0.5246395831300202  0.35527067972370163  1.0000
  Cl  Cl839     1.0  0.8733703082492076  0.5437384009238548  0.3330021653099744  1.0000
  Cl  Cl840     1.0  0.9333815768048267  0.5018872402694209  0.4022289184284517  1.0000
  Cl  Cl841     1.0  0.016943692885889167  0.5196586312987603  0.33364726990580384  1.0000
  Pu  Pu154     1.0  0.05902913816132763  0.630149334478032  0.3761786850859681  1.0000
  Cl  Cl842     1.0  0.07742537088573002  0.638078745135102  0.24686002533739282  1.0000
  Cl  Cl843     1.0  0.08588554548430455  0.674070205710752  0.40736701112279833  1.0000
  Cl  Cl844     1.0  0.0016178602970521342  0.6332983546685712  0.3559364607488846  1.0000
  Na  Na374     1.0  0.9668381071417367  0.7124291174473785  0.33072569043815325  1.0000
  Cl  Cl845     1.0  0.11792222541750917  0.6226375876939029  0.38718474843083994  1.0000
  Cl  Cl846     1.0  0.26428198471065795  0.6381924654965463  0.39253374070459224  1.0000
  Pu  Pu155     1.0  0.2680388919241902  0.6470088949728818  0.3428648221115973  1.0000
  Na  Na375     1.0  0.35990633518475795  0.6225838289775838  0.35299420485188043  1.0000
  Pu  Pu156     1.0  0.5034441753997401  0.5603767236246221  0.3700832737125542  1.0000
  Cl  Cl847     1.0  0.4823790291743869  0.6103930062307559  0.40562398812829764  1.0000
  Cl  Cl848     1.0  0.5706653148709272  0.6328269320793112  0.3651726217410962  1.0000
  Na  Na376     1.0  0.4608714073608688  0.6404399933672725  0.3600262584750083  1.0000
  Na  Na377     1.0  0.6068428633107587  0.6700010844139818  0.39551114653149727  1.0000
  Na  Na378     1.0  0.6831306170534587  0.6470605860462655  0.3521733506065462  1.0000
  Cl  Cl849     1.0  0.5463849838811038  0.7112071404725862  0.2885499098428693  1.0000
  Cl  Cl850     1.0  0.682524797673401  0.6308978212206289  0.2888166357815296  1.0000
  Cl  Cl851     1.0  0.8541205525210924  0.6117597182110227  0.32349307545029643  1.0000
  Pu  Pu157     1.0  0.7798094654245876  0.6028047566580188  0.3848400413421522  1.0000
  Cl  Cl852     1.0  0.7703810136393883  0.6447613671021555  0.33767710598680234  1.0000
  Cl  Cl853     1.0  0.8362933351324985  0.5943501646953697  0.39925151260154673  1.0000
  Cl  Cl854     1.0  0.911993878281559  0.6426089508064554  0.3753888454846641  1.0000
  Na  Na379     1.0  0.902714296787705  0.5902272846822804  0.3577208366020922  1.0000
  Cl  Cl855     1.0  0.10535902017802468  0.7032901356731283  0.3339532810602357  1.0000
  Cl  Cl856     1.0  0.019851894703748013  0.7039993371999536  0.3664545603610136  1.0000
  Pu  Pu158     1.0  0.13632652194935943  0.6721576359955526  0.370666349020323  1.0000
  Cl  Cl857     1.0  0.17382115893900932  0.6685185844293352  0.4140806477338821  1.0000
  Cl  Cl858     1.0  0.16419111196761338  0.7212806968536148  0.365701938332546  1.0000
  Na  Na380     1.0  0.23059181072205337  0.6898607948080254  0.430847164296641  1.0000
  Cl  Cl859     1.0  0.2275399697494757  0.6895589189394642  0.3421949058005437  1.0000
  Cl  Cl860     1.0  0.3166884625500572  0.6704497629309529  0.36615888742125846  1.0000
  Pu  Pu159     1.0  0.40284921130905693  0.6930821825013018  0.41234589531112276  1.0000
  Cl  Cl861     1.0  0.4522700127498098  0.6820389015835936  0.3872405747900944  1.0000
  Cl  Cl862     1.0  0.4020945216376539  0.6429439089619823  0.3928645635742483  1.0000
  Cl  Cl863     1.0  0.37299037967965726  0.706466035221827  0.3621683365560316  1.0000
  Cl  Cl864     1.0  0.5603581148382039  0.7084675135832464  0.37585406514511804  1.0000
  Na  Na381     1.0  0.44881084611896804  0.7361098319859501  0.3556759377390304  1.0000
  Pu  Pu160     1.0  0.55228810446153  0.7447505118127808  0.4232072236505201  1.0000
  Cl  Cl865     1.0  0.6436200282018419  0.6864057634630543  0.3383987133712397  1.0000
  Na  Na382     1.0  0.4955912675312781  0.736734260152426  0.27280894417604434  1.0000
  Cl  Cl866     1.0  0.6769049441751177  0.7339718891907975  0.2775603876414803  1.0000
  Na  Na383     1.0  0.5578604021723003  0.7526034196812428  0.33295874480833204  1.0000
  Na  Na384     1.0  0.7416076945510478  0.6597497107405129  0.2895982048110921  1.0000
  Na  Na385     1.0  0.7019544383368918  0.7229637582029904  0.38472218569483724  1.0000
  Cl  Cl867     1.0  0.713688311995007  0.768025968336024  0.36650418379146205  1.0000
  Na  Na386     1.0  0.8446631537347983  0.8125423207341248  0.3638513979054071  1.0000
  Na  Na387     1.0  0.8191318987690875  0.657227186359385  0.31241257695975194  1.0000
  Cl  Cl868     1.0  0.8073814839674894  0.7046403065099123  0.35199760095704147  1.0000
  Na  Na388     1.0  0.9023648651316307  0.7419695320647341  0.3566187829175502  1.0000
  Cl  Cl869     1.0  0.9560057258034343  0.672207259426001  0.45180272544642053  1.0000
  Cl  Cl870     1.0  0.9521681805154234  0.722850037841546  0.3798177366521853  1.0000
  Pu  Pu161     1.0  0.9799779779958905  0.7223538035370619  0.43309055688149656  1.0000
  Na  Na389     1.0  0.968856126646639  0.6443623120156329  0.40452193444375567  1.0000
  Pu  Pu162     1.0  0.05511178185601215  0.7360312615544069  0.3430364364752314  1.0000
  Cl  Cl871     1.0  0.011033914495211041  0.8333944997371368  0.37286425346060087  1.0000
  Cl  Cl872     1.0  0.09228924241937926  0.7573858777907091  0.39057568284481514  1.0000
  Na  Na390     1.0  0.13463911854981972  0.7548075270503267  0.3259080823987861  1.0000
  Na  Na391     1.0  0.15993052693502968  0.7528349956900021  0.4038065299881244  1.0000
  Na  Na392     1.0  0.24479445004497744  0.780925992609677  0.4051773772542619  1.0000
  Cl  Cl873     1.0  0.24597300651812737  0.8083470732182982  0.28834521319226963  1.0000
  Cl  Cl874     1.0  0.24279090404062262  0.7633675688026786  0.3536620535199988  1.0000
  Cl  Cl875     1.0  0.34585876908198515  0.7819908287213826  0.34854463725500573  1.0000
  Na  Na393     1.0  0.3258419178248549  0.7377577434054248  0.39369989132013006  1.0000
  Cl  Cl876     1.0  0.4167644482639673  0.7382911952827451  0.43777170048713054  1.0000
  Cl  Cl877     1.0  0.5790330658302916  0.7865375755362188  0.38217278195554977  1.0000
  Pu  Pu163     1.0  0.49505781565395757  0.8146327077417643  0.36518295995577293  1.0000
  Na  Na394     1.0  0.43242270821337825  0.7836408077837924  0.4523692596107066  1.0000
  Cl  Cl878     1.0  0.5082142276515942  0.7686255847872756  0.39406999940555787  1.0000
  Cl  Cl879     1.0  0.5307639415045291  0.8586569611212519  0.3674366907553053  1.0000
  Na  Na395     1.0  0.5618344118940443  0.905137574307936  0.31674222126637636  1.0000
  Cl  Cl880     1.0  0.67963009756391  0.765780508108233  0.43325390067338926  1.0000
  Na  Na396     1.0  0.6552484520702544  0.7827537889645271  0.387633426947811  1.0000
  Cl  Cl881     1.0  0.7533374329232925  0.7149661153290537  0.29940503525346057  1.0000
  Cl  Cl882     1.0  0.8107186596651456  0.7846250058210195  0.4562874429731963  1.0000
  Na  Na397     1.0  0.7056079634036564  0.7745990052275038  0.3147655546201811  1.0000
  Cl  Cl883     1.0  0.8403914034303636  0.7600345283908934  0.37789689636524454  1.0000
  Cl  Cl884     1.0  0.017205311746499096  0.7690039634444448  0.3221429046135124  1.0000
  Pu  Pu164     1.0  0.9596096274397506  0.8103609574373298  0.3727195184551263  1.0000
  Na  Na398     1.0  0.09933638983593511  0.8306838198488921  0.38047524710562686  1.0000
  Na  Na399     1.0  0.18381407724555934  0.9257292303010938  0.36362809246838923  1.0000
  Cl  Cl885     1.0  0.14739234017506295  0.8752415251056999  0.35482406884966583  1.0000
  Cl  Cl886     1.0  0.26146378738977494  0.8331649913713128  0.3975973982532662  1.0000
  Cl  Cl887     1.0  0.3941485698371011  0.806252550924788  0.4130261498368532  1.0000
  Na  Na400     1.0  0.34195712686297836  0.8123500299411371  0.3920023564702071  1.0000
  Cl  Cl888     1.0  0.353616565375421  0.893806891022214  0.42668913435365075  1.0000
  Na  Na401     1.0  0.4230397445727567  0.8299270625345537  0.3713445359031181  1.0000
  Cl  Cl889     1.0  0.4725060341580873  0.8276381818051204  0.4165700898280443  1.0000
  Cl  Cl890     1.0  0.5477785752195301  0.9095354508314268  0.43362607640175244  1.0000
  Na  Na402     1.0  0.45330383421748516  0.8960482159641342  0.2957804571877908  1.0000
  Cl  Cl891     1.0  0.4674920000398618  0.8520301655134528  0.33775774406128106  1.0000
  Cl  Cl892     1.0  0.6137405201430887  0.9085698615806183  0.36596659662827086  1.0000
  Na  Na403     1.0  0.6698274024074122  0.9332471800140291  0.32514925744151235  1.0000
  Cl  Cl893     1.0  0.6650925000854591  0.8104994895139983  0.3372304951127666  1.0000
  Cl  Cl894     1.0  0.7083620637935436  0.8951736030024809  0.33863855995174047  1.0000
  Na  Na404     1.0  0.8538848412264624  0.8973880485862414  0.35528101793837835  1.0000
  Na  Na405     1.0  0.8583819646108503  0.8452524319713732  0.43187478283551034  1.0000
  Cl  Cl895     1.0  0.8706327490028033  0.8871925012720271  0.40497888353246825  1.0000
  Na  Na406     1.0  0.9173821557710828  0.9179445546494983  0.3995368473266251  1.0000
  Cl  Cl896     1.0  0.8080348591350602  0.8424052876493953  0.38039667667408356  1.0000
  Cl  Cl897     1.0  0.9441271171398444  0.8883958694604012  0.34922075649486545  1.0000
  Cl  Cl898     1.0  0.9302366919001583  0.777282805757589  0.3369017398860459  1.0000
  Cl  Cl899     1.0  0.9007004125686734  0.8366427667885727  0.36537525074876054  1.0000
  Cl  Cl900     1.0  0.9648738463531535  0.831674220814925  0.4243092773350621  1.0000
  Cl  Cl901     1.0  0.10571486152719854  0.9207048579681916  0.3224013599804313  1.0000
  Na  Na407     1.0  0.013718252612459464  0.8864192028142059  0.34621853895273613  1.0000
  Pu  Pu165     1.0  0.09200638886582328  0.9331913536547745  0.37226256936641383  1.0000
  Cl  Cl902     1.0  0.03919651388973708  0.9414681283249834  0.3544353519778199  1.0000
  Cl  Cl903     1.0  0.07538295319419058  0.8879513262293007  0.39343730066734056  1.0000
  Cl  Cl904     1.0  0.14541401941451937  0.9505988395274922  0.38827646390070514  1.0000
  Na  Na408     1.0  0.22985159455119783  0.9357283515364498  0.4417994689251938  1.0000
  Cl  Cl905     1.0  0.15850488713110536  0.928524683549688  0.2843712034705255  1.0000
  Cl  Cl906     1.0  0.23642049615680705  0.9273895475781804  0.3466217293251295  1.0000
  Cl  Cl907     1.0  0.23184273469794053  0.0003678398811276986  0.37018458821638633  1.0000
  Pu  Pu166     1.0  0.27388618614536203  0.9784892750824381  0.325535906670423  1.0000
  Cl  Cl908     1.0  0.3098342262193696  0.9424523263622104  0.35613288682774286  1.0000
  Cl  Cl909     1.0  0.2716076436306056  0.8937572675917657  0.4360555568507895  1.0000
  Na  Na409     1.0  0.426802854715095  0.9395803703250083  0.44114195847175225  1.0000
  Cl  Cl910     1.0  0.3836966347989033  0.989425038567508  0.40040112207360173  1.0000
  Cl  Cl911     1.0  0.4776606679959166  0.9612823505744493  0.4191050200667843  1.0000
  Na  Na410     1.0  0.4970096705849287  0.9408395648726368  0.33499123781378176  1.0000
  Cl  Cl912     1.0  0.5675721210396425  0.07032219034562617  0.43448828350579366  1.0000
  Cl  Cl913     1.0  0.6844787202473075  0.9446709072318417  0.39339594780863346  1.0000
  Na  Na411     1.0  0.584595025326385  0.940239948421385  0.39745473089072697  1.0000
  Cl  Cl914     1.0  0.7346790230746876  0.9900784137350788  0.39716939616564856  1.0000
  Na  Na412     1.0  0.6528479186223122  0.002614782608903224  0.37610424994029545  1.0000
  Cl  Cl915     1.0  0.784110162730117  0.9209447045486922  0.3710426600345569  1.0000
  Cl  Cl916     1.0  0.9201321208750993  0.938536210642656  0.45258636211891845  1.0000
  Na  Na413     1.0  0.9000387668293611  0.9915464402191777  0.3441426254456441  1.0000
  Cl  Cl917     1.0  0.9482975529404468  0.9904237101052823  0.41181037579086693  1.0000
  Cl  Cl918     1.0  0.06569749339212722  0.9614022738646998  0.4228205744216096  1.0000
  Na  Na414     1.0  0.07832562261978172  0.041286900897376654  0.43744294526040983  1.0000
  Cl  Cl919     1.0  0.11351318362216731  0.01657625205984799  0.40236745050512024  1.0000
  Na  Na415     1.0  0.13052740380858127  0.9800648189991753  0.4401432869339778  1.0000
  Na  Na416     1.0  0.27530252155607726  0.036566265311677434  0.39572411375383837  1.0000
  Cl  Cl920     1.0  0.24634518224649052  0.05851801682770892  0.43313190974020355  1.0000
  Cl  Cl921     1.0  0.31065714810763917  0.9964240099036701  0.40232609764641325  1.0000
  Cl  Cl922     1.0  0.3250582811523569  0.11740179969068139  0.4619052288285442  1.0000
  Cl  Cl923     1.0  0.29371281425244006  0.012658709666668343  0.480439580101028  1.0000
  Pu  Pu167     1.0  0.35220229760764116  0.01909584038800767  0.43927487690113054  1.0000
  Cl  Cl924     1.0  0.4019994100626278  0.05371757022470516  0.44387331478935055  1.0000
  Na  Na417     1.0  0.4507048070477493  0.015645688680364048  0.45129201764138893  1.0000
  Cl  Cl925     1.0  0.4086075968840087  0.9897372526507459  0.4665843047912428  1.0000
  Cl  Cl926     1.0  0.5162532233842377  0.06296406943159358  0.49772507504055996  1.0000
  Cl  Cl927     1.0  0.49403640004389426  0.05990809317314521  0.4321270352736231  1.0000
  Na  Na418     1.0  0.6290782954375204  0.05867908621237274  0.40757377541633333  1.0000
  Cl  Cl928     1.0  0.719831279155934  0.9994892942626113  0.47180923848887407  1.0000
  Na  Na419     1.0  0.8451552527534117  0.06553973223615996  0.5026998239430138  1.0000
  Cl  Cl929     1.0  0.7963154589774923  0.02945667507847399  0.42747897395495477  1.0000
  Pu  Pu168     1.0  0.8368226517239482  0.0018323885898094477  0.45959980695562813  1.0000
  Cl  Cl930     1.0  0.7926205810520206  0.00869257766450795  0.4907633212772341  1.0000
  Pu  Pu169     1.0  0.9123846627963403  0.09269181249889204  0.4660756646291465  1.0000
  Cl  Cl931     1.0  0.874722546728927  0.035721219643999595  0.47876685696632926  1.0000
  Cl  Cl932     1.0  0.9317874241016713  0.04283039634861597  0.44780597165238767  1.0000
  Cl  Cl933     1.0  0.006389616286684967  0.02845283443336122  0.42675323128464665  1.0000
  Pu  Pu170     1.0  0.007628072375671986  0.13155833057614716  0.49480969850171547  1.0000
  Cl  Cl934     1.0  0.9989166026576637  0.14700155566028164  0.4351871468179422  1.0000
  Cl  Cl935     1.0  0.051169200306885404  0.09140346418587501  0.48284011354897016  1.0000
  Cl  Cl936     1.0  0.15706415353375297  0.06801821582276486  0.4289552710107951  1.0000
  Cl  Cl937     1.0  0.1629749243930401  0.12817980201978407  0.48283184297722875  1.0000
  Cl  Cl938     1.0  0.216947434991674  0.11711708525848359  0.406345595512735  1.0000
  Pu  Pu171     1.0  0.2008156848100677  0.090386390625976  0.45495588092283035  1.0000
  Cl  Cl939     1.0  0.24302868297818794  0.12157719783432863  0.48775903609216953  1.0000
  Na  Na420     1.0  0.2756416149974748  0.13374279533734518  0.5769923022531004  1.0000
  Cl  Cl940     1.0  0.3062985567999199  0.16708084973405954  0.4155548771467871  1.0000
  Cl  Cl941     1.0  0.48515794127949835  0.2263903602774207  0.4968794090800015  1.0000
  Pu  Pu172     1.0  0.5256961486699845  0.09693916461668949  0.45460024633795004  1.0000
  Cl  Cl942     1.0  0.5414784671955165  0.14463617214224042  0.4280144934752106  1.0000
  Cl  Cl943     1.0  0.6905679286919153  0.16242823960093336  0.4079459511446965  1.0000
  Cl  Cl944     1.0  0.6429149619608874  0.10543903795962274  0.4281199432649134  1.0000
  Pu  Pu173     1.0  0.6106700703840929  0.14904149218029866  0.4513540469294494  1.0000
  Na  Na421     1.0  0.7362607699202308  0.135457284859338  0.44063125066672065  1.0000
  Cl  Cl945     1.0  0.7962348209030138  0.09384080167806644  0.46448978249773254  1.0000
  Cl  Cl946     1.0  0.8657158941025392  0.118997192979598  0.4882325263243648  1.0000
  Cl  Cl947     1.0  0.9137203601325768  0.16565148817285158  0.3727443301703505  1.0000
  Cl  Cl948     1.0  0.9250489757753634  0.15097184362474209  0.45334518707619215  1.0000
  Pu  Pu174     1.0  0.9531565138385211  0.16474048469553607  0.4086117321698794  1.0000
  Na  Na422     1.0  0.00477238868837105  0.20924753270042795  0.4479982624453753  1.0000
  Na  Na423     1.0  0.07890228823445104  0.13142000526377218  0.46715704188433493  1.0000
  Cl  Cl949     1.0  0.059299792621565026  0.1623277521542753  0.5086608385256299  1.0000
  Cl  Cl950     1.0  0.14681753543903545  0.24270199539440251  0.41660317211500997  1.0000
  Na  Na424     1.0  0.21578541966200687  0.24051649681173684  0.40860346159813804  1.0000
  Cl  Cl951     1.0  0.11264022477486223  0.2023804769835411  0.4700310655644725  1.0000
  Cl  Cl952     1.0  0.20302640863654467  0.200561157964726  0.46867055651301165  1.0000
  Na  Na425     1.0  0.3244896793451355  0.23298614124118952  0.39671865000574214  1.0000
  Na  Na426     1.0  0.17393880782203078  0.19358761863666865  0.4159084440887321  1.0000
  Na  Na427     1.0  0.3117137136476034  0.17276293928469683  0.4841158492400816  1.0000
  Cl  Cl953     1.0  0.41578231786967573  0.18776410230925336  0.4672769651745853  1.0000
  Na  Na428     1.0  0.5277658592482705  0.24612601209534332  0.4637454310410063  1.0000
  Na  Na429     1.0  0.4713274776849374  0.19446843452712806  0.44586238729315797  1.0000
  Cl  Cl954     1.0  0.4835782620768903  0.3100471934417107  0.5291987358024686  1.0000
  Cl  Cl955     1.0  0.6032203528880242  0.15288048481836436  0.3891076563607161  1.0000
  Cl  Cl956     1.0  0.6474100177023397  0.20614730888316304  0.44663361810804375  1.0000
  Na  Na430     1.0  0.6136991672843817  0.29020402419114993  0.5375437426895441  1.0000
  Cl  Cl957     1.0  0.8203704168873627  0.14688183913432484  0.40634146022686435  1.0000
  Na  Na431     1.0  0.7070098253138243  0.21732374600590781  0.42602128568553244  1.0000
  Na  Na432     1.0  0.6317104048942218  0.23987966278764877  0.4825713199673746  1.0000
  Na  Na433     1.0  0.820107826234573  0.14197346157009577  0.4624262748482525  1.0000
  Na  Na434     1.0  0.8965155032675234  0.15873501578980992  0.5075215672682517  1.0000
  Cl  Cl958     1.0  0.8493732443415272  0.19830060394350707  0.4761698974395287  1.0000
  Cl  Cl959     1.0  0.009582801330323201  0.2626175321477006  0.5209674492768374  1.0000
  Pu  Pu175     1.0  0.01744288391977089  0.3001018309226738  0.48457693361466475  1.0000
  Cl  Cl960     1.0  0.9824529465895053  0.2616622811115686  0.4513561145723848  1.0000
  Cl  Cl961     1.0  0.047988338415141864  0.24334296470436126  0.46106990108266244  1.0000
  Na  Na435     1.0  0.08745922852239998  0.25976004961104593  0.43380182605125717  1.0000
  Cl  Cl962     1.0  0.1495120877123845  0.3511415967818063  0.4907715918489755  1.0000
  Na  Na436     1.0  0.20056880824358683  0.34223212337338  0.4719457029226072  1.0000
  Cl  Cl963     1.0  0.20053365831368586  0.2768801331157499  0.4426120525987866  1.0000
  Pu  Pu176     1.0  0.2942814160596615  0.2883782954792352  0.45820414797426634  1.0000
  Na  Na437     1.0  0.2696723298431173  0.2919160325416203  0.3508666002714046  1.0000
  Cl  Cl964     1.0  0.27332585490988204  0.26457145472160704  0.40813410665181343  1.0000
  Cl  Cl965     1.0  0.30559555820190065  0.3328078068740514  0.4323875582834773  1.0000
  Na  Na438     1.0  0.4005189777209167  0.26267956143576116  0.419115358281461  1.0000
  Cl  Cl966     1.0  0.4194896016527595  0.30226045014717995  0.45311981399623896  1.0000
  Cl  Cl967     1.0  0.5036013162628268  0.3632186991671898  0.4599016828241893  1.0000
  Cl  Cl968     1.0  0.49352982752473334  0.369905456420114  0.5421153012196045  1.0000
  Pu  Pu177     1.0  0.539228871681855  0.3833079179270573  0.5162346145978196  1.0000
  Cl  Cl969     1.0  0.5804225218828473  0.35338292172372643  0.47807833186885745  1.0000
  Cl  Cl970     1.0  0.5830649695542255  0.2599440698322921  0.4571785970783324  1.0000
  Pu  Pu178     1.0  0.6027261862264754  0.3138537240856914  0.44092278832060505  1.0000
  Cl  Cl971     1.0  0.6296634383882246  0.30737786641217296  0.4853522997154213  1.0000
  Cl  Cl972     1.0  0.705529392972113  0.23655282530466948  0.48639852704070874  1.0000
  Na  Na439     1.0  0.6922344488978079  0.27017476707640753  0.5300278606195442  1.0000
  Cl  Cl973     1.0  0.7716960345462713  0.280258661672113  0.48583199287642265  1.0000
  Pu  Pu179     1.0  0.7769540505308682  0.27549274470612956  0.4334048386076699  1.0000
  Na  Na440     1.0  0.8678745133270453  0.3112919144887919  0.4630569059435345  1.0000
  Cl  Cl974     1.0  0.8405175296494201  0.27563954735453944  0.5172126097062405  1.0000
  Cl  Cl975     1.0  0.9018438191119222  0.35602743703804  0.49663129192775946  1.0000
  Cl  Cl976     1.0  0.9156081181325519  0.2835627550828034  0.4529130497027039  1.0000
  Cl  Cl977     1.0  0.007213737407857057  0.36599347598643045  0.4766661317440129  1.0000
  Pu  Pu180     1.0  0.9578417927300257  0.3757403447836737  0.5012049181007553  1.0000
  Cl  Cl978     1.0  0.053756235147596226  0.3211359625039966  0.43816868793071795  1.0000
  Cl  Cl979     1.0  0.02499821661697724  0.36345854574769043  0.3706828901638059  1.0000
  Na  Na441     1.0  0.036227998927454055  0.40522700068471035  0.4474337959240245  1.0000
  Na  Na442     1.0  0.07951327672184717  0.3541024614652285  0.3995037650396595  1.0000
  Na  Na443     1.0  0.0938552751786139  0.35266338198222436  0.4895971706616963  1.0000
  Cl  Cl980     1.0  0.09671317124385564  0.4169567390569549  0.5347917099425923  1.0000
  Na  Na444     1.0  0.18737910719469106  0.37694991590085386  0.5409718946763555  1.0000
  Cl  Cl981     1.0  0.2624769324280968  0.32436148548314375  0.4875047160111214  1.0000
  Na  Na445     1.0  0.3096626118557355  0.3566477299186452  0.49196048653680213  1.0000
  Cl  Cl982     1.0  0.36829683021641113  0.41551559193101545  0.5036219926921802  1.0000
  Cl  Cl983     1.0  0.4368929522396065  0.4206288729101378  0.4471546641277521  1.0000
  Pu  Pu181     1.0  0.4441379730850754  0.3534532215835283  0.4460567457290809  1.0000
  Cl  Cl984     1.0  0.44129496404896823  0.3732198880454812  0.4946546252815642  1.0000
  Cl  Cl985     1.0  0.5111895658355639  0.4205751141938187  0.4871987048566894  1.0000
  Cl  Cl986     1.0  0.5821882889496368  0.3855016870814645  0.3946944275720337  1.0000
  Cl  Cl987     1.0  0.6368671063749864  0.4128669413308312  0.4598375858931934  1.0000
  Cl  Cl988     1.0  0.6412360358973825  0.33679215481047226  0.4052456094711284  1.0000
  Na  Na446     1.0  0.7257302644504897  0.3765880783871675  0.42731976544893274  1.0000
  Cl  Cl989     1.0  0.699880592472735  0.3798177366521853  0.4871449461403704  1.0000
  Cl  Cl990     1.0  0.7645502605616993  0.3315713563987117  0.428347383987802  1.0000
  Cl  Cl991     1.0  0.8312503540131781  0.3408261261773415  0.47448270080428256  1.0000
  Na  Na447     1.0  0.792020964600769  0.3762407143740286  0.4609106925766404  1.0000
  Na  Na448     1.0  0.8866859287528661  0.40738561990921646  0.4442454905177137  1.0000
  Cl  Cl992     1.0  0.9383377169208624  0.3924882525600145  0.4517241550148772  1.0000
  Cl  Cl993     1.0  0.02925197842787427  0.46729764160393883  0.4398041934925804  1.0000
  Na  Na449     1.0  0.05202479095353353  0.5059749703526093  0.48619176274717363  1.0000
  Na  Na450     1.0  0.9755490868283693  0.36142191745637003  0.38084742283399  1.0000
  Cl  Cl994     1.0  0.15595134810594724  0.46664219879343266  0.4330760833809491  1.0000
  Cl  Cl995     1.0  0.26048165699548337  0.44372651214094067  0.44684451768744954  1.0000
  Pu  Pu182     1.0  0.2600888048377667  0.44888114597877  0.503154705388791  1.0000
  Cl  Cl996     1.0  0.29802384977264634  0.40952563034730444  0.49032084568906903  1.0000
  Cl  Cl997     1.0  0.3362669735048932  0.4625337922808908  0.45677127142006835  1.0000
  Cl  Cl998     1.0  0.40141219946898826  0.4752229169751381  0.48209782973517923  1.0000
  Pu  Pu183     1.0  0.3798094660804439  0.4259447828969245  0.44619321016281405  1.0000
  Na  Na451     1.0  0.5221728851081469  0.46267645964342996  0.4659784854111851  1.0000
  Na  Na452     1.0  0.6317042019654158  0.3624929564968817  0.5043601412201004  1.0000
  Cl  Cl999     1.0  0.5695611935434499  0.48034033324013115  0.4896095765193084  1.0000
  Cl  Cl1000    1.0  0.5990333759439391  0.45418465010794457  0.39255648477688115  1.0000
  Pu  Pu184     1.0  0.6307282744999302  0.4019704630615329  0.4105449783144323  1.0000
  Cl  Cl1001    1.0  0.6769731763919844  0.4335206266120495  0.4105449783144323  1.0000
  Cl  Cl1002    1.0  0.756854493556324  0.4131667495564571  0.44755371921427484  1.0000
  Cl  Cl1003    1.0  0.8381997019188918  0.5134226202057426  0.47956289949643927  1.0000
  Cl  Cl1004    1.0  0.8336591580328616  0.4311800548092325  0.4525904974047891  1.0000
  Cl  Cl1005    1.0  0.9117747081304117  0.42882707714880336  0.5171381745605679  1.0000
  Cl  Cl1006    1.0  0.05510247746280308  0.5610693840079646  0.4487302080444894  1.0000
  Na  Na453     1.0  0.11022439076919845  0.4317279801871004  0.4679489491285743  1.0000
  Cl  Cl1007    1.0  0.16062670231136228  0.5446274873860556  0.44331918648267654  1.0000
  Cl  Cl1008    1.0  0.1772182962817906  0.5227476898441743  0.5211556047839543  1.0000
  Na  Na454     1.0  0.18325829482453707  0.5885297498323574  0.3713528064748595  1.0000
  Cl  Cl1009    1.0  0.211753515938073  0.49171443702749545  0.46944385497083285  1.0000
  Na  Na455     1.0  0.2569294464325508  0.5490481079818355  0.4893883387252259  1.0000
  Cl  Cl1010    1.0  0.36774476955267243  0.5731175393922532  0.3725458364485569  1.0000
  Na  Na456     1.0  0.32996066255207346  0.47291129217341604  0.5403185195087847  1.0000
  Na  Na457     1.0  0.4910424530735064  0.5489778081220336  0.4564342456216061  1.0000
  Na  Na458     1.0  0.4230790297885284  0.5336234916841192  0.4828256400484227  1.0000
  Cl  Cl1011    1.0  0.47313459761043386  0.49944948924864246  0.4709490990277682  1.0000
  Cl  Cl1012    1.0  0.4312276105967456  0.5449272956116815  0.4316762891137167  1.0000
  Na  Na459     1.0  0.6052280341782498  0.5837328182223438  0.3694174926873712  1.0000
  Na  Na460     1.0  0.5369461938812278  0.651756203152447  0.47522911990394423  1.0000
  Cl  Cl1013    1.0  0.4882594056825244  0.5010167625936384  0.3815835037189748  1.0000
  Cl  Cl1014    1.0  0.5933246137994357  0.5344402106435826  0.3920106270419485  1.0000
  Na  Na461     1.0  0.613128497834225  0.5372439344639183  0.4402652778671635  1.0000
  Na  Na462     1.0  0.585897640375656  0.6165752586074545  0.42786769082680065  1.0000
  Na  Na463     1.0  0.692352304545123  0.4853274880001971  0.41041471680950525  1.0000
  Cl  Cl1015    1.0  0.7345074087110534  0.48719043428494807  0.46899104116799106  1.0000
  Cl  Cl1016    1.0  0.7688902430830005  0.5533694817167185  0.4120853723012686  1.0000
  Na  Na464     1.0  0.8223450158906226  0.5468253918263335  0.4392376593282943  1.0000
  Cl  Cl1017    1.0  0.8618742135286576  0.522433408118001  0.4183978861828943  1.0000
  Pu  Pu185     1.0  0.9238228635147004  0.5401179581440557  0.4490527603424041  1.0000
  Cl  Cl1018    1.0  0.8777226966281209  0.5842952171007592  0.4620975196215318  1.0000
  Cl  Cl1019    1.0  0.9751893169576182  0.5170864834871841  0.4534692456523132  1.0000
  Na  Na465     1.0  0.060187845262298166  0.5134949877084799  0.421844646956124  1.0000
  Cl  Cl1020    1.0  0.9403888187127304  0.5751831146846685  0.41434944131547763  1.0000
  Cl  Cl1021    1.0  0.025864765771182727  0.639852782773633  0.43286311615860795  1.0000
  Cl  Cl1022    1.0  0.12885468067388256  0.6089621973194932  0.4804023625281917  1.0000
  Na  Na466     1.0  0.132872110897269  0.6513033893496052  0.45058281611456363  1.0000
  Na  Na467     1.0  0.18889179476619364  0.5811255204808665  0.5021498309222105  1.0000
  Cl  Cl1023    1.0  0.06943847975505728  0.6382875770715725  0.32775448754005426  1.0000
  Cl  Cl1024    1.0  0.21107119376940725  0.6064706875823955  0.4639397894769292  1.0000
  Cl  Cl1025    1.0  0.22426482333988015  0.6919367083151176  0.49462981356633995  1.0000
  Cl  Cl1026    1.0  0.27872447061408273  0.5972758794488909  0.46295559143970233  1.0000
  Cl  Cl1027    1.0  0.34501930605023273  0.6126095194574519  0.42107755142710895  1.0000
  Pu  Pu186     1.0  0.33772052648844475  0.5973606528092403  0.4752890815490693  1.0000
  Cl  Cl1028    1.0  0.32778963746995526  0.595785108892503  0.5334022538900366  1.0000
  Na  Na468     1.0  0.47678605503426325  0.6553332254306038  0.43475707708738925  1.0000
  Cl  Cl1029    1.0  0.5235664764465732  0.5427004441703087  0.4140496330898518  1.0000
  Cl  Cl1030    1.0  0.5804473335980714  0.6704063424293104  0.44324888662287465  1.0000
  Na  Na469     1.0  0.6702636750667713  0.6437358162062216  0.47356053205511617  1.0000
  Cl  Cl1031    1.0  0.635101339308197  0.6298702026817596  0.3993507594624435  1.0000
  Cl  Cl1032    1.0  0.7194859827857305  0.6146109978188714  0.37870120946709596  1.0000
  Cl  Cl1033    1.0  0.7310999331535953  0.6023229958540821  0.47126338075394153  1.0000
  Pu  Pu187     1.0  0.7655758114576332  0.6428942855315338  0.4746853298119469  1.0000
  Cl  Cl1034    1.0  0.7977028473871127  0.5950138780776173  0.48073318539784776  1.0000
  Na  Na470     1.0  0.8675106081704236  0.6736980299823888  0.4058534964941215  1.0000
  Cl  Cl1035    1.0  0.7987821569993658  0.6823387098092194  0.501374464821454  1.0000
  Na  Na471     1.0  0.9163566048751489  0.6284001085547253  0.431719709615359  1.0000
  Cl  Cl1036    1.0  0.8778550257759833  0.6723478591456048  0.4569532239983792  1.0000
  Na  Na472     1.0  0.049943294810515966  0.683426289993214  0.4695431018317297  1.0000
  Cl  Cl1037    1.0  0.14038530503145288  0.6743741492222485  0.5102405177282379  1.0000
  Cl  Cl1038    1.0  0.19959494842103662  0.6370056384516549  0.5268044052833325  1.0000
  Cl  Cl1039    1.0  0.35417482896796576  0.6989150032219262  0.4463979068134138  1.0000
  Na  Na473     1.0  0.3142672526727615  0.6592762205083176  0.4193076490744487  1.0000
  Cl  Cl1040    1.0  0.28045922303684195  0.7400321506343105  0.4220183289626934  1.0000
  Na  Na474     1.0  0.3040572318579997  0.7640436880425383  0.46563939196978754  1.0000
  Cl  Cl1041    1.0  0.38224721710122245  0.727607684235788  0.5011263476692119  1.0000
  Cl  Cl1042    1.0  0.42655680520578826  0.6767105857391948  0.4617935761100352  1.0000
  Cl  Cl1043    1.0  0.48705396985121496  0.641680579128483  0.48887763092019426  1.0000
  Na  Na475     1.0  0.49462154299459854  0.808746128304821  0.5070149947490907  1.0000
  Cl  Cl1044    1.0  0.5204960266875774  0.7080146997804048  0.44344324505879756  1.0000
  Cl  Cl1045    1.0  0.723238754713392  0.7013610248144461  0.42095556049392324  1.0000
  Na  Na476     1.0  0.6883410772505426  0.724559978549081  0.482308729314585  1.0000
  Cl  Cl1046    1.0  0.7871206508439877  0.6460474410079436  0.4178251490898022  1.0000
  Na  Na477     1.0  0.7640726350436333  0.6835234692111755  0.37409863629300527  1.0000
  Cl  Cl1047    1.0  0.8090459365304468  0.7173149577036122  0.43454824515091883  1.0000
  Pu  Pu188     1.0  0.8538848412264624  0.7509244936177382  0.42843422499108674  1.0000
  Cl  Cl1048    1.0  0.8998257996070199  0.7184314848887016  0.41432669724318877  1.0000
  Cl  Cl1049    1.0  0.9468274588134125  0.7390086673813119  0.4724378019412207  1.0000
  Cl  Cl1050    1.0  0.03448538946154047  0.7358307001896778  0.44367688871049227  1.0000
  Na  Na478     1.0  0.11782628678530889  0.7885948802568928  0.4299787542637937  1.0000
  Cl  Cl1051    1.0  0.09170182506144611  0.8372858037414669  0.43941754426366975  1.0000
  Cl  Cl1052    1.0  0.15030606259955917  0.7858159681517815  0.4778777705041285  1.0000
  Cl  Cl1053    1.0  0.20889396575848296  0.7524421435322856  0.43131858688590097  1.0000
  Cl  Cl1054    1.0  0.21599631924141266  0.7348382315807096  0.5588032473508201  1.0000
  Cl  Cl1055    1.0  0.299454658683909  0.7290260872894386  0.5226070901245705  1.0000
  Na  Na479     1.0  0.24892560062980817  0.8571537847072518  0.5596819955983442  1.0000
  Na  Na480     1.0  0.3299544596232674  0.8120150717856104  0.5437797537825618  1.0000
  Cl  Cl1056    1.0  0.46021803219329793  0.7716898316174654  0.49671399764517343  1.0000
  Na  Na481     1.0  0.46093963957773537  0.8656517971715433  0.46068325185375186  1.0000
  Na  Na482     1.0  0.5720092827789052  0.8089508249554206  0.5067648099539133  1.0000
  Cl  Cl1057    1.0  0.5415260229830295  0.7886486389732119  0.4685940537244037  1.0000
  Na  Na483     1.0  0.5926753739177356  0.8461208420042204  0.373867060284246  1.0000
  Cl  Cl1058    1.0  0.6254557850147859  0.7903523767519409  0.4892105214327857  1.0000
  Pu  Pu189     1.0  0.6646396862826173  0.8161937781579542  0.4548235517749679  1.0000
  Cl  Cl1059    1.0  0.6416743761996768  0.8325136838466773  0.4123851805268945  1.0000
  Cl  Cl1060    1.0  0.7585995841937601  0.7410452956726323  0.48044578302983404  1.0000
  Cl  Cl1061    1.0  0.7216425343673012  0.8246256260483144  0.43616100664049234  1.0000
  Na  Na484     1.0  0.7708028127981998  0.7575450862967311  0.42856035121014313  1.0000
  Cl  Cl1062    1.0  0.894555377764811  0.7921450231768901  0.4221899433263276  1.0000
  Na  Na485     1.0  0.8617005315220881  0.7872777917070743  0.5169065985518085  1.0000
  Cl  Cl1063    1.0  0.9920488774524681  0.7685408114269262  0.3939976319028205  1.0000
  Na  Na486     1.0  0.02357629857033655  0.7629044167851602  0.5568265807046249  1.0000
  Cl  Cl1064    1.0  0.020955974678366587  0.8685837148538706  0.46999591563457155  1.0000
  Cl  Cl1065    1.0  0.15167008664401005  0.8021772266992117  0.3861757386783888  1.0000
  Cl  Cl1066    1.0  0.13925968021744797  0.8724626130005886  0.4684906715776362  1.0000
  Na  Na487     1.0  0.11206335239589937  0.7888367944803288  0.5140098307993822  1.0000
  Na  Na488     1.0  0.15981597951641124  0.857997383024875  0.41653287225520796  1.0000
  Cl  Cl1067    1.0  0.19855389020308753  0.8262549286813707  0.43495763845211827  1.0000
  Cl  Cl1068    1.0  0.2626216674335713  0.9450410153172695  0.48905338056969905  1.0000
  Pu  Pu190     1.0  0.24959758458379716  0.8446900330929578  0.45732746736967766  1.0000
  Cl  Cl1069    1.0  0.25805217654644624  0.7900256891681555  0.4799040605807722  1.0000
  Cl  Cl1070    1.0  0.3275270468171657  0.8138015152817534  0.4500969200247562  1.0000
  Pu  Pu191     1.0  0.37775629664564064  0.8534981919975517  0.4570442002875346  1.0000
  Cl  Cl1071    1.0  0.4175832348663662  0.8230211351304823  0.48082209404406784  1.0000
  Cl  Cl1072    1.0  0.4188713764150897  0.8842295689456695  0.423748946099582  1.0000
  Na  Na489     1.0  0.5086691090973714  0.9064794745729786  0.3972314254537091  1.0000
  Cl  Cl1073    1.0  0.48949378851492875  0.9115141851205576  0.4704280530080598  1.0000
  Cl  Cl1074    1.0  0.5751934528993453  0.8626681884158321  0.49167928709759445  1.0000
  Cl  Cl1075    1.0  0.580226095803989  0.9439162175604388  0.5029872263110275  1.0000
  Cl  Cl1076    1.0  0.6135151470631355  0.9130173615345576  0.44074910631403563  1.0000
  Na  Na490     1.0  0.6606305266309723  0.8952170235041232  0.41201714008440204  1.0000
  Na  Na491     1.0  0.774936031025966  0.8529027108321708  0.45400476517256905  1.0000
  Pu  Pu192     1.0  0.8714990913927152  0.919458069278175  0.46411553912643405  1.0000
  Cl  Cl1077    1.0  0.8309195311435219  0.8851910229106076  0.45980657124916313  1.0000
  Na  Na492     1.0  0.9369110432954705  0.7973844303750688  0.45342582515067087  1.0000
  Cl  Cl1078    1.0  0.9139312597119825  0.8781920515744455  0.4779625438644778  1.0000
  Na  Na493     1.0  0.12616571103645893  0.9417389895495144  0.5450430836160611  1.0000
  Pu  Pu193     1.0  0.16813782880261083  0.9175579054205878  0.47906459754901976  1.0000
  Cl  Cl1079    1.0  0.14321673526712217  0.8913960193595951  0.5336917239009856  1.0000
  Cl  Cl1080    1.0  0.12508350672409638  0.9481590208637783  0.4871552843550471  1.0000
  Cl  Cl1081    1.0  0.18615816404136645  0.9618985081691839  0.451858551805675  1.0000
  Cl  Cl1082    1.0  0.1865516364919637  0.9010767235829072  0.41594566166156843  1.0000
  Na  Na494     1.0  0.24024770323014125  0.9959422490997334  0.5052802423263315  1.0000
  Na  Na495     1.0  0.31403981194987296  0.9286446068399383  0.40797076285992073  1.0000
  Cl  Cl1083    1.0  0.3198788355993034  0.9220963816636826  0.5500509148054805  1.0000
  Na  Na496     1.0  0.38654171147794586  0.03474053659976275  0.5124942485277701  1.0000
  Cl  Cl1084    1.0  0.4778033353584558  0.9781377757834284  0.4969972647273165  1.0000
  Na  Na497     1.0  0.48213297966508023  0.009840946550801737  0.3759471090772088  1.0000
  Cl  Cl1085    1.0  0.34357195599548723  0.9633706699391535  0.46097685715057163  1.0000
  Pu  Pu194     1.0  0.5164103642473244  0.9546204050367493  0.4626847302151714  1.0000
  Cl  Cl1086    1.0  0.5461699490158273  0.9999700175377966  0.4581276451856584  1.0000
  Cl  Cl1087    1.0  0.6056208863359664  0.9940606940285642  0.41066696924761803  1.0000
  Cl  Cl1088    1.0  0.7154602819906025  0.899908505324434  0.4434184333435734  1.0000
  Na  Na498     1.0  0.6972712270883223  0.9599507885240836  0.4409972234662777  1.0000
  Na  Na499     1.0  0.769789667759878  0.9342623926952861  0.5051479131784691  1.0000
  Cl  Cl1089    1.0  0.8200995556628317  0.9500095612909173  0.4603751730563846  1.0000
  Cl  Cl1090    1.0  0.866687686282154  0.9713042158820943  0.49577115246665354  1.0000
  Na  Na500     1.0  0.956392375032345  0.9116423789825493  0.4801066895884365  1.0000
  Cl  Cl1091    1.0  0.9876551362148478  0.9190052554753333  0.38656859083610545  1.0000
  Cl  Cl1092    1.0  0.004149035696221517  0.9592312487825814  0.4620540991198894  1.0000
  Pu  Pu195     1.0  0.007460283151468276  0.9724848399981795  0.4060395843583031  1.0000
  Na  Na501     1.0  0.0587878442307722  0.07189752749806988  0.5338364589064603  1.0000
  Cl  Cl1093    1.0  0.026656879779715585  0.027954739250235228  0.5349343773051315  1.0000
  Cl  Cl1094    1.0  0.09369379226536301  0.021849816719318706  0.4795587642105686  1.0000
  Cl  Cl1095    1.0  0.10438391976971327  0.07235861187265309  0.5618364795369797  1.0000
  Na  Na502     1.0  0.15039042243132147  0.012405257995653052  0.4936311420285655  1.0000
  Cl  Cl1096    1.0  0.19808929083551424  0.030955922970896797  0.5617579091054363  1.0000
  Na  Na503     1.0  0.2924019286314277  0.07218968544483494  0.4814547927822852  1.0000
  Cl  Cl1097    1.0  0.3370940306790335  0.013461740829899852  0.5425784532371231  1.0000
  Cl  Cl1098    1.0  0.260839359223299  0.06242462138976057  0.5446171491713789  1.0000
  Cl  Cl1099    1.0  0.348174529169578  0.05685873337208997  0.47987924886554795  1.0000
  Na  Na504     1.0  0.4165907662573978  0.05497035507923416  0.5896049241587398  1.0000
  Na  Na505     1.0  0.380251941668609  0.10088422733733866  0.4739223695688025  1.0000
  Cl  Cl1100    1.0  0.43095881701515  0.06329923435141392  0.5301333104092472  1.0000
  Cl  Cl1101    1.0  0.5743333134382395  0.042194389381702085  0.5528091504812385  1.0000
  Na  Na506     1.0  0.5133502527030054  0.03239045363944312  0.5697596872652436  1.0000
  Cl  Cl1102    1.0  0.633445157316981  0.09897165762213925  0.5471665529106663  1.0000
  Cl  Cl1103    1.0  0.5823330239551113  0.11106385380095085  0.4826354168983705  1.0000
  Cl  Cl1104    1.0  0.6371255617419053  0.040662679495194275  0.5003385757108433  1.0000
  Pu  Pu196     1.0  0.6332280548087692  0.0440515462662341  0.557994798963098  1.0000
  Cl  Cl1105    1.0  0.7014189188166359  0.058081537404056395  0.5480432335152551  1.0000
  Na  Na507     1.0  0.6693766562475058  0.06809678625430819  0.4737962433497461  1.0000
  Cl  Cl1106    1.0  0.7462412823691688  0.01845867554104999  0.5652729020955325  1.0000
  Pu  Pu197     1.0  0.7409150341677052  0.9676382849577175  0.5802715839485666  1.0000
  Cl  Cl1107    1.0  0.7926846779830166  0.9426942405856464  0.5515706323629633  1.0000
  Cl  Cl1108    1.0  0.8778240111319531  0.9496994148506146  0.5720857855675132  1.0000
  Cl  Cl1109    1.0  0.9126162388050995  0.06706854742255829  0.5194146494323889  1.0000
  Na  Na508     1.0  0.9069281530899498  0.01408846408003401  0.5347131395110489  1.0000
  Cl  Cl1110    1.0  0.86651607191852  0.03872281689324823  0.568423989929007  1.0000
  Na  Na509     1.0  0.9656285360245566  0.9966587096929026  0.4620685726204369  1.0000
  Cl  Cl1111    1.0  0.9510557886162048  0.012911479015514966  0.567392236104267  1.0000
  Cl  Cl1112    1.0  0.017432752469387674  0.108544430884226  0.5487586379708863  1.0000
  Cl  Cl1113    1.0  0.967954634326826  0.08258000472355936  0.4858650751633883  1.0000
  Na  Na510     1.0  0.14187421470919895  0.1547967762908474  0.5209322993469364  1.0000
  Cl  Cl1114    1.0  0.17055448986544874  0.20373726427771827  0.5253797993008759  1.0000
  Cl  Cl1115    1.0  0.18434111942978026  0.050106225073821606  0.4939206120395147  1.0000
  Na  Na511     1.0  0.2016470840343722  0.08550737359142892  0.527821685607525  1.0000
  Cl  Cl1116    1.0  0.33528070782473085  0.12745860816393376  0.606001332636071  1.0000
  Cl  Cl1117    1.0  0.3284119979934958  0.10314540165143819  0.5421173688625399  1.0000
  Cl  Cl1118    1.0  0.2921372703357028  0.16890595815309362  0.5332182336687904  1.0000
  Pu  Pu198     1.0  0.3631235875921637  0.14434256684542063  0.5588239237801736  1.0000
  Cl  Cl1119    1.0  0.39713217859281225  0.1359225045197919  0.5147335058267549  1.0000
  Na  Na512     1.0  0.4487302080444894  0.14892653123309318  0.5151201550556656  1.0000
  Na  Na513     1.0  0.5647497884328888  0.09599445855952773  0.5295667762449611  1.0000
  Cl  Cl1120    1.0  0.5160547296624441  0.13609618652636135  0.5409905034627738  1.0000
  Na  Na514     1.0  0.5639454753310373  0.1992970010740526  0.5448363193225261  1.0000
  Cl  Cl1121    1.0  0.5784644640230702  0.18979494120035484  0.46977467784048904  1.0000
  Na  Na515     1.0  0.6684606904271454  0.13555715201311544  0.5371943110334698  1.0000
  Cl  Cl1122    1.0  0.7067989257344184  0.12149015006675036  0.5013661942497126  1.0000
  Pu  Pu199     1.0  0.7496466902836915  0.0839097058952834  0.5334622155351617  1.0000
  Cl  Cl1123    1.0  0.7416469797668194  0.05657753393288228  0.48642747404180364  1.0000
  Na  Na516     1.0  0.9004750394887202  0.10830933988247661  0.5671523895237663  1.0000
  Cl  Cl1124    1.0  0.8059837573431924  0.06937210841683251  0.5453780417715879  1.0000
  Cl  Cl1125    1.0  0.7704409752845135  0.1356005725147578  0.5400104407114175  1.0000
  Na  Na517     1.0  0.9825728698797557  0.0725012792351923  0.5464676895985178  1.0000
  Cl  Cl1126    1.0  0.9331954889406452  0.06734912656888536  0.6326139648569701  1.0000
  Cl  Cl1127    1.0  0.060959903134358125  0.23605038807137926  0.5816899870022172  1.0000
  Cl  Cl1128    1.0  0.9913293377109659  0.18601301550730484  0.495833181754714  1.0000
  Na  Na518     1.0  0.04941563233341446  0.15384483348341194  0.5734711063341981  1.0000
  Na  Na519     1.0  0.9519283339349226  0.22783977797510155  0.4959179551150634  1.0000
  Na  Na520     1.0  0.17630543192583323  0.21709630528301926  0.5838072533680163  1.0000
  Na  Na521     1.0  0.07572039252123983  0.21850230247905775  0.5025509536516685  1.0000
  Cl  Cl1129    1.0  0.11182391934398578  0.2722300041541461  0.4910321148588297  1.0000
  Pu  Pu200     1.0  0.16063972846185498  0.2379195372849363  0.47953395249534436  1.0000
  Cl  Cl1130    1.0  0.17655830465682665  0.2871521832185722  0.500696277938659  1.0000
  Na  Na522     1.0  0.2408390491096515  0.1707707653164864  0.4498798175165444  1.0000
  Cl  Cl1131    1.0  0.2732390139065973  0.18775335056598955  0.6111725076173832  1.0000
  Cl  Cl1132    1.0  0.35582894331624626  0.19145236377733196  0.522939980637162  1.0000
  Na  Na523     1.0  0.3017993657725967  0.22130189101352257  0.5565495165512879  1.0000
  Cl  Cl1133    1.0  0.4422026592975872  0.24488542633413288  0.5487441644703389  1.0000
  Pu  Pu201     1.0  0.5059501586373851  0.26403179991548054  0.546699265607277  1.0000
  Cl  Cl1134    1.0  0.5216477038025678  0.210721762113333  0.5732767478982752  1.0000
  Cl  Cl1135    1.0  0.549546409929255  0.2763921693830071  0.5150705316252172  1.0000
  Cl  Cl1136    1.0  0.6410210010321061  0.15619450291514447  0.49628392791462056  1.0000
  Na  Na524     1.0  0.6889096790577641  0.1829529039629858  0.48278635483265103  1.0000
  Cl  Cl1137    1.0  0.7448642321742251  0.18429749216384436  0.45465193741133386  1.0000
  Na  Na525     1.0  0.7620463449669896  0.22953731282502451  0.509268725548623  1.0000
  Cl  Cl1138    1.0  0.7183653203147704  0.1932913254040329  0.5361563542799238  1.0000
  Na  Na526     1.0  0.7556035695804367  0.15330724632022072  0.4968959502234843  1.0000
  Cl  Cl1139    1.0  0.8037817176170438  0.2045597726374008  0.5301353780521825  1.0000
  Cl  Cl1140    1.0  0.8703515495635955  0.16411977828634378  0.5547775465556923  1.0000
  Cl  Cl1141    1.0  0.9407920090851237  0.12673534666514807  0.5291697888013737  1.0000
  Cl  Cl1142    1.0  0.9615656176565924  0.22735801717116486  0.6157730131485385  1.0000
  Na  Na527     1.0  0.04913505318708737  0.2947507710059861  0.5706343002268969  1.0000
  Cl  Cl1143    1.0  0.04602449115514575  0.32827553355976263  0.5242591368299158  1.0000
  Cl  Cl1144    1.0  0.9654962068766941  0.3174452198643956  0.49459052835056827  1.0000
  Na  Na528     1.0  0.13429423570820323  0.29171753881982665  0.5422869155832386  1.0000
  Cl  Cl1145    1.0  0.19874204571020446  0.3294933752486842  0.5775588364173865  1.0000
  Na  Na529     1.0  0.23483461402539305  0.28899445307396976  0.5258946423917782  1.0000
  Cl  Cl1146    1.0  0.27378900692740055  0.25252329933731843  0.5000821879868598  1.0000
  Cl  Cl1147    1.0  0.2760737523709631  0.3059615310014577  0.5700822395631583  1.0000
  Cl  Cl1148    1.0  0.3197733858096005  0.2914260011659422  0.5162056675967247  1.0000
  Cl  Cl1149    1.0  0.3883922519050848  0.2841230863182834  0.557440670656424  1.0000
  Pu  Pu202     1.0  0.3397550871368298  0.31020226666186207  0.5651323023759287  1.0000
  Na  Na530     1.0  0.40753242255762634  0.21812185617895322  0.5083837743722929  1.0000
  Na  Na531     1.0  0.42258072784110884  0.32647048127720146  0.5219743913863532  1.0000
  Cl  Cl1150    1.0  0.4807104413255589  0.2756540208550869  0.6005923787171935  1.0000
  Na  Na532     1.0  0.5250407058594783  0.33062644357725646  0.5774368454842008  1.0000
  Cl  Cl1151    1.0  0.6230614544956498  0.23706560075263647  0.53887530473991  1.0000
  Cl  Cl1152    1.0  0.7365688487175981  0.3107522596826653  0.5328522608692333  1.0000
  Na  Na533     1.0  0.7952981786532998  0.3246550907799636  0.516873516264843  1.0000
  Cl  Cl1153    1.0  0.8257070033035028  0.235064122391217  0.5826328321807371  1.0000
  Cl  Cl1154    1.0  0.9086773790132564  0.22054513369918421  0.5355443319710599  1.0000
  Pu  Pu203     1.0  0.8518482129351419  0.22308626686673028  0.527149701653536  1.0000
  Na  Na534     1.0  0.8639832093227152  0.20309877613928196  0.4130550968379481  1.0000
  Cl  Cl1155    1.0  0.9495215975581744  0.35826669433702485  0.5548147641285287  1.0000
  Na  Na535     1.0  0.0684180979664617  0.37797546679678784  0.5533860228602012  1.0000
  Na  Na536     1.0  0.14421747444783192  0.4447830776809049  0.5597047396706331  1.0000
  Cl  Cl1156    1.0  0.12379805311118884  0.3307794491544724  0.5764940003056809  1.0000
  Cl  Cl1157    1.0  0.23414195364205054  0.39995037591369526  0.5234713648715471  1.0000
  Na  Na537     1.0  0.2571465489407626  0.3628568616535034  0.5448363193225261  1.0000
  Cl  Cl1158    1.0  0.31425071152927875  0.3671410178155501  0.5586791887746991  1.0000
  Cl  Cl1159    1.0  0.3703107144354427  0.3446388597501282  0.5220012707445127  1.0000
  Pu  Pu204     1.0  0.3597864118945076  0.39992349655553566  0.5662405589892767  1.0000
  Cl  Cl1160    1.0  0.4316452744696864  0.3466341351827417  0.5776001892760935  1.0000
  Cl  Cl1161    1.0  0.5759274661413948  0.3601379111935172  0.5453635682710405  1.0000
  Na  Na538     1.0  0.4477852952230341  0.3962823773463831  0.5907938188465665  1.0000
  Cl  Cl1162    1.0  0.5829863991226821  0.39026760404744787  0.6165649203927778  1.0000
  Cl  Cl1163    1.0  0.664525965921173  0.30827935873198586  0.5527677976225315  1.0000
  Na  Na539     1.0  0.6264193066226593  0.4593785691615456  0.49307494607895624  1.0000
  Na  Na540     1.0  0.6212191846402523  0.37532888383953894  0.5873491257162722  1.0000
  Na  Na541     1.0  0.718427349602831  0.36074373057357495  0.548444356244713  1.0000
  Na  Na542     1.0  0.7842755741649452  0.42760716781694647  0.5781067617952544  1.0000
  Cl  Cl1164    1.0  0.7720082486295093  0.38500958806285096  0.508125319005374  1.0000
  Na  Na543     1.0  0.8793685404046601  0.3827434514057066  0.5377339658395964  1.0000
  Cl  Cl1165    1.0  0.9755035986837916  0.42564704231423395  0.5142393391652061  1.0000
  Na  Na544     1.0  0.9332988710874127  0.4111115124787184  0.5687548127986631  1.0000
  Cl  Cl1166    1.0  0.026619248678292202  0.47730503341103625  0.5225388579077039  1.0000
  Pu  Pu205     1.0  0.012066061172108766  0.5039052597743232  0.5664266468534582  1.0000
  Cl  Cl1167    1.0  0.17848679522262823  0.413673322075618  0.58710100856403  1.0000
  Cl  Cl1168    1.0  0.09946417016933978  0.4807766058994902  0.46908615274301724  1.0000
  Na  Na545     1.0  0.22385336239574538  0.521761424164012  0.5600004126103882  1.0000
  Na  Na546     1.0  0.23136510917987455  0.42225817554319417  0.571430342757007  1.0000
  Cl  Cl1169    1.0  0.1596416772169612  0.4439870351507948  0.5030595938137649  1.0000
  Cl  Cl1170    1.0  0.21896545449657628  0.4679634226291218  0.5428679232480722  1.0000
  Na  Na547     1.0  0.2863850876895571  0.513902313366744  0.6127687279634738  1.0000
  Cl  Cl1171    1.0  0.2845614266205778  0.5024041510032586  0.511632041423729  1.0000
  Cl  Cl1172    1.0  0.363437869318337  0.45668856570265426  0.5806251508905116  1.0000
  Na  Na548     1.0  0.4375525303359834  0.4587789527102939  0.5115844856362158  1.0000
  Cl  Cl1173    1.0  0.5254542344465485  0.43460407151017333  0.562233466980567  1.0000
  Cl  Cl1174    1.0  0.43187478283551034  0.4409000442483162  0.5698031077668859  1.0000
  Cl  Cl1175    1.0  0.5946665140644783  0.4351085763863989  0.5422641715109497  1.0000
  Pu  Pu206     1.0  0.5549388227046497  0.47930444412952045  0.5495629510727378  1.0000
  Cl  Cl1176    1.0  0.6537101257263535  0.3925378759904629  0.5500902000212523  1.0000
  Cl  Cl1177    1.0  0.6752342886833544  0.4561365050389157  0.5124715044554813  1.0000
  Cl  Cl1178    1.0  0.6181218555230968  0.4965651273538282  0.5685687249344816  1.0000
  Cl  Cl1179    1.0  0.7281948948294277  0.442461114664506  0.5514713855020665  1.0000
  Pu  Pu207     1.0  0.7304568962007014  0.42291155071076497  0.4972805318094596  1.0000
  Pu  Pu208     1.0  0.7419819379223461  0.5087125295990137  0.5298975991146171  1.0000
  Cl  Cl1180    1.0  0.8423184466461106  0.41692158912705396  0.5166584813995665  1.0000
  Cl  Cl1181    1.0  0.7799976209317044  0.4585163620575043  0.5076518287731787  1.0000
  Pu  Pu209     1.0  0.8637144157411197  0.46478338779455236  0.5026812151565957  1.0000
  Cl  Cl1182    1.0  0.857331601999692  0.49274205556636475  0.5483905975283939  1.0000
  Cl  Cl1183    1.0  0.9618654258822182  0.48797820624331667  0.5549346874187789  1.0000
  Na  Na549     1.0  0.9515540905636243  0.47240471965425507  0.5042939766461693  1.0000
  Na  Na550     1.0  0.11816868845540297  0.5477000047879869  0.41520958077658354  1.0000
  Cl  Cl1184    1.0  0.9853703907712852  0.5546328115502178  0.5690049975938406  1.0000
  Cl  Cl1185    1.0  0.043725272211035754  0.5474146700629084  0.5437673479249497  1.0000
  Pu  Pu210     1.0  0.1560619670029885  0.49491721593435367  0.4809089350473526  1.0000
  Na  Na551     1.0  0.10953524537884604  0.5338240530488482  0.5702290422115682  1.0000
  Cl  Cl1186    1.0  0.11685449460569405  0.4925476971304418  0.5280677351168317  1.0000
  Cl  Cl1187    1.0  0.332522472148973  0.5430291993970295  0.4634104728854795  1.0000
  Na  Na552     1.0  0.3601068965494869  0.641422123761564  0.5938208481039199  1.0000
  Cl  Cl1188    1.0  0.3969150760846004  0.5945238467019391  0.470771281735328  1.0000
  Na  Na553     1.0  0.2906030792776726  0.5768227555324017  0.5629075185774913  1.0000
  Na  Na554     1.0  0.42328165879619273  0.5944886967720382  0.5251399527203752  1.0000
  Cl  Cl1189    1.0  0.47414981029169107  0.580209554660506  0.5086587708826945  1.0000
  Cl  Cl1190    1.0  0.5058447088476823  0.5028590324490357  0.5317977629722044  1.0000
  Cl  Cl1191    1.0  0.5514321002862949  0.5881410329605115  0.4811384434131765  1.0000
  Pu  Pu211     1.0  0.5029686175246094  0.5628392863606247  0.5529704266301958  1.0000
  Pu  Pu212     1.0  0.596998815295554  0.5813839758477853  0.5092956049067826  1.0000
  Cl  Cl1192    1.0  0.6225135291177818  0.5856247115081896  0.45832820655038736  1.0000
  Na  Na555     1.0  0.6698770258378607  0.5438976094298769  0.5457274734276623  1.0000
  Na  Na556     1.0  0.7984782134878693  0.6021906667062197  0.5291160300850546  1.0000
  Cl  Cl1193    1.0  0.7914689039370303  0.5368924351649086  0.5297073759645649  1.0000
  Cl  Cl1194    1.0  0.7250210629236643  0.5549946490639042  0.5079785163569642  1.0000
  Cl  Cl1195    1.0  0.951905589862634  0.5758199487087565  0.47939955570454656  1.0000
  Na  Na557     1.0  0.011058043888266584  0.6085652098759059  0.4781941198732371  1.0000
  Cl  Cl1196    1.0  0.13295605720044423  0.5819732540843603  0.5444413995218741  1.0000
  Cl  Cl1197    1.0  0.053597026641574216  0.6047069881585415  0.5149671494784496  1.0000
  Pu  Pu213     1.0  0.10646665649849206  0.628168532545966  0.5254294227313242  1.0000
  Cl  Cl1198    1.0  0.2617077692561463  0.6479558754372724  0.5475449315678355  1.0000
  Na  Na558     1.0  0.23685470117323068  0.6117018242088329  0.5887365141258925  1.0000
  Pu  Pu214     1.0  0.24416381894969547  0.6405619843004582  0.49625704855646097  1.0000
  Cl  Cl1199    1.0  0.2814413534311336  0.6668561995093133  0.4574597965175401  1.0000
  Cl  Cl1200    1.0  0.24053717324109034  0.5695611935434499  0.5322340356315635  1.0000
  Na  Na559     1.0  0.33494161438333336  0.7042536572810016  0.4993192277437154  1.0000
  Cl  Cl1201    1.0  0.3586740199952889  0.650128968162326  0.5010581154523454  1.0000
  Na  Na560     1.0  0.4876949391611736  0.6442734033694127  0.5450761659030268  1.0000
  Cl  Cl1202    1.0  0.5318763334037477  0.6134448472033336  0.5578893491733952  1.0000
  Cl  Cl1203    1.0  0.6444181383748873  0.6171728074157709  0.5150705316252172  1.0000
  Cl  Cl1204    1.0  0.5973151646646626  0.6537907638008321  0.5172849772089778  1.0000
  Cl  Cl1205    1.0  0.6500855476606836  0.6897077892308093  0.45281587048474237  1.0000
  Na  Na561     1.0  0.6767250592397422  0.6669616492990162  0.568694851153538  1.0000
  Cl  Cl1206    1.0  0.7550577118455042  0.6351530303815807  0.5293165914497836  1.0000
  Na  Na562     1.0  0.8577368600150208  0.610175903722544  0.6016075913984507  1.0000
  Cl  Cl1207    1.0  0.8555286173600662  0.5986033062133861  0.53277369043769  1.0000
  Na  Na563     1.0  0.8492223064072466  0.6298515938953415  0.4846306923309839  1.0000
  Cl  Cl1208    1.0  0.9319011444631157  0.6479930930101087  0.5175206885036077  1.0000
  Pu  Pu215     1.0  0.9414102343227936  0.6524612693934017  0.5710333553134196  1.0000
  Cl  Cl1209    1.0  0.06970169070072742  0.6629690307908539  0.5118884291477124  1.0000
  Pu  Pu216     1.0  0.09909612972684735  0.709885916636897  0.5278899178243915  1.0000
  Cl  Cl1210    1.0  0.09840884521513678  0.7210243091296313  0.4747639002434903  1.0000
  Na  Na564     1.0  0.18069648522763754  0.679146269117038  0.5537726720891119  1.0000
  Cl  Cl1211    1.0  0.1210716591366354  0.6723499267885401  0.5677974941195958  1.0000
  Cl  Cl1212    1.0  0.14538631299918567  0.7636342947413389  0.6130437244738756  1.0000
  Na  Na565     1.0  0.19969729674633652  0.7607065123448823  0.48318747756210906  1.0000
  Cl  Cl1213    1.0  0.3463425975288572  0.6834821163524684  0.6281892089753196  1.0000
  Pu  Pu217     1.0  0.40664126845249016  0.6792517189067409  0.5145350121049613  1.0000
  Cl  Cl1214    1.0  0.3740593510772336  0.6872865793535137  0.5645533623540305  1.0000
  Cl  Cl1215    1.0  0.4642706123465854  0.6917733645232247  0.5228076514892995  1.0000
  Cl  Cl1216    1.0  0.41609039666704295  0.6359759522698504  0.554851981701365  1.0000
  Na  Na566     1.0  0.49862449971743755  0.7322557455544565  0.4885488756934735  1.0000
  Cl  Cl1217    1.0  0.562994359580776  0.7352641660253917  0.4982047682015614  1.0000
  Pu  Pu218     1.0  0.6038344428398235  0.6984870011343085  0.4848043743375533  1.0000
  Na  Na567     1.0  0.5759750219289078  0.7757651558430416  0.5888936549889792  1.0000
  Cl  Cl1218    1.0  0.5665382995719672  0.6961464293314915  0.5909509597096531  1.0000
  Cl  Cl1219    1.0  0.646037102793267  0.7234951424373756  0.5153765427796491  1.0000
  Cl  Cl1220    1.0  0.6094646345527834  0.7325617567088883  0.42784081146864106  1.0000
  Cl  Cl1221    1.0  0.7198705643717057  0.6712912936056407  0.4828793987647418  1.0000
  Pu  Pu219     1.0  0.764235978835526  0.7174969102819231  0.5284150991299706  1.0000
  Cl  Cl1222    1.0  0.7937102288789505  0.7655427291706677  0.5381640355701492  1.0000
  Cl  Cl1223    1.0  0.7939480078165158  0.6992478937345177  0.5713042165379506  1.0000
  Cl  Cl1224    1.0  0.7084199577957334  0.722885187771447  0.5468253918263335  1.0000
  Cl  Cl1225    1.0  0.889520667217232  0.6631840656561303  0.5919475636044922  1.0000
  Na  Na568     1.0  0.89879404578228  0.7275187755895679  0.6046304853699335  1.0000
  Cl  Cl1226    1.0  0.8727293389392489  0.7468843193220628  0.4786841512489152  1.0000
  Na  Na569     1.0  0.9212300392737707  0.6930325590708534  0.49098042378544593  1.0000
  Cl  Cl1227    1.0  0.9624505688329226  0.7009578344420526  0.5647704648622422  1.0000
  Cl  Cl1228    1.0  0.0698925341436603  0.7589262717775455  0.5293476060938138  1.0000
  Cl  Cl1229    1.0  0.1385891436135137  0.7353572099574824  0.5550897606389302  1.0000
  Cl  Cl1230    1.0  0.1484892247522665  0.8123086770824303  0.550106741164735  1.0000
  Cl  Cl1231    1.0  0.21945962115812512  0.7761125198561805  0.6308585360048573  1.0000
  Pu  Pu220     1.0  0.1900664227177664  0.7791271432559218  0.5816879193592819  1.0000
  Cl  Cl1232    1.0  0.21451175161383088  0.7997353403925626  0.5283261904837506  1.0000
  Cl  Cl1233    1.0  0.20052476744906386  0.8743917238592708  0.49466289585330553  1.0000
  Na  Na570     1.0  0.20957628792714866  0.9582759977464493  0.5818305867218211  1.0000
  Na  Na571     1.0  0.2811932362788915  0.7044314745734418  0.5623244432697224  1.0000
  Cl  Cl1234    1.0  0.27737223213436335  0.8150917244734123  0.5765208796638405  1.0000
  Na  Na572     1.0  0.26423236128020955  0.7650175478650886  0.5460913785842839  1.0000
  Na  Na573     1.0  0.3439503346526564  0.8913650047155648  0.58954703015655  1.0000
  Cl  Cl1235    1.0  0.3668618860192777  0.8561261661683827  0.5101143915091815  1.0000
  Cl  Cl1236    1.0  0.3693885456862763  0.7773613761891324  0.5674708065358104  1.0000
  Na  Na574     1.0  0.48537917907358086  0.8279938163900007  0.5785037492388417  1.0000
  Cl  Cl1237    1.0  0.5340452908429307  0.7969150754287441  0.5510640598438025  1.0000
  Cl  Cl1238    1.0  0.46290183272338314  0.8601911521792821  0.5207151968387246  1.0000
  Na  Na575     1.0  0.4237965018870951  0.789208970208692  0.5293600119514259  1.0000
  Cl  Cl1239    1.0  0.410937830472149  0.8309836280745179  0.5618344118940443  1.0000
  Cl  Cl1240    1.0  0.5949704575759749  0.9070956321677132  0.563436835168941  1.0000
  Na  Na576     1.0  0.6624314436276627  0.776528116086186  0.5405873130903803  1.0000
  Cl  Cl1241    1.0  0.6735491596910435  0.8654160858769134  0.4871594196409178  1.0000
  Cl  Cl1242    1.0  0.6992892465932246  0.7946758181297593  0.5033345903241665  1.0000
  Na  Na577     1.0  0.7067472346610346  0.9020940039070997  0.514020169014059  1.0000
  Na  Na578     1.0  0.8352553783789525  0.73274784457307  0.5141049423744084  1.0000
  Cl  Cl1243    1.0  0.869929750404784  0.7490429385465689  0.5607675081394033  1.0000
  Na  Na579     1.0  0.9292483585770607  0.7809694131113194  0.5474601582074861  1.0000
  Cl  Cl1244    1.0  0.02114888576423481  0.8069720906662899  0.506963303675707  1.0000
  Cl  Cl1245    1.0  0.0885925036152657  0.8323813546988149  0.5195676550096049  1.0000
  Pu  Pu221     1.0  0.040026879292573925  0.8613200852219836  0.5187323272637233  1.0000
  Cl  Cl1246    1.0  0.9959711770640398  0.8839587077211386  0.5510950744878327  1.0000
  Na  Na580     1.0  0.05963247636986296  0.888577822038712  0.4433005776962584  1.0000
  Na  Na581     1.0  0.10247507181179749  0.834763279360339  0.5713021488950153  1.0000
  Cl  Cl1247    1.0  0.16451883337286646  0.9510495856873986  0.6114578423424616  1.0000
  Cl  Cl1248    1.0  0.21850230247905775  0.8954341260123351  0.5723049557186604  1.0000
  Na  Na582     1.0  0.17840946537684613  0.8260481643878357  0.4922354830472038  1.0000
  Na  Na583     1.0  0.2431734179836625  0.926066256099556  0.5339956674124823  1.0000
  Cl  Cl1249    1.0  0.26738344911368406  0.8637909185297277  0.5094527457698692  1.0000
  Cl  Cl1250    1.0  0.39967331176035825  0.9063037249234739  0.5868094709101457  1.0000
  Cl  Cl1251    1.0  0.40269413808890564  0.9063140631381504  0.48202546223244197  1.0000
  Pu  Pu222     1.0  0.4158278060142534  0.89269243148006  0.5356415111890214  1.0000
  Cl  Cl1252    1.0  0.45328315778813166  0.9297053076657732  0.5567583484877583  1.0000
  Na  Na584     1.0  0.5590865144329632  0.896265318472346  0.5293910265954562  1.0000
  Cl  Cl1253    1.0  0.5231736242888566  0.8316287326703473  0.617427127496819  1.0000
  Cl  Cl1254    1.0  0.52080617312788  0.8800922154320326  0.5634244293113291  1.0000
  Pu  Pu223     1.0  0.6243578666161147  0.9088779403779854  0.4947373309989782  1.0000
  Cl  Cl1255    1.0  0.6611267609354565  0.8865639378196805  0.5422434950815963  1.0000
  Na  Na585     1.0  0.7097721962754527  0.008690964903018376  0.5321740739864382  1.0000
  Cl  Cl1256    1.0  0.751584071714115  0.8780638577124538  0.5000656468433771  1.0000
  Na  Na586     1.0  0.7553182348553583  0.8253823833626527  0.5299162079010353  1.0000
  Pu  Pu224     1.0  0.8991455450812896  0.8604496075462009  0.5337537531890462  1.0000
  Cl  Cl1257    1.0  0.900539136419716  0.8127201380265651  0.4954113825959025  1.0000
  Cl  Cl1258    1.0  0.8580656152417415  0.9039300708336911  0.5215339834411234  1.0000
  Cl  Cl1259    1.0  0.8540088998025834  0.8338183665388836  0.546699265607277  1.0000
  Na  Na587     1.0  0.0114967563662893  0.8111321882522156  0.44681557068635464  1.0000
  Cl  Cl1260    1.0  0.06340303002676853  0.9156308622048408  0.5202747888934949  1.0000
  Cl  Cl1261    1.0  0.9952475210734556  0.9594897041495003  0.5420636101462207  1.0000
  Na  Na588     1.0  0.05717218804108914  0.9931881487098462  0.4981882270580785  1.0000
  Na  Na589     1.0  0.16106628319941785  0.8833425501264041  0.5811958203406684  1.0000
  Cl  Cl1262    1.0  0.12957173924386217  0.9953801206545404  0.5476834636445039  1.0000
  Cl  Cl1263    1.0  0.19606920368767658  0.9491411512580699  0.528251755338078  1.0000
  Cl  Cl1264    1.0  0.26848757044116134  0.9818719389246717  0.5484402209588424  1.0000
  Pu  Pu225     1.0  0.32486805800230467  0.9683102689117065  0.5132385999844964  1.0000
  Cl  Cl1265    1.0  0.3783414395963449  0.94970148249355  0.5215339834411234  1.0000
  Na  Na590     1.0  0.39467788642855095  0.9600004119545318  0.585155356561865  1.0000
  Cl  Cl1266    1.0  0.39178318631905995  0.0036778819005431488  0.6215748192251326  1.0000
  Na  Na591     1.0  0.502435165647289  0.9293248613656687  0.5494078778525865  1.0000
  Cl  Cl1267    1.0  0.5429754406807105  0.9731899062391342  0.5687465422269218  1.0000
  Na  Na592     1.0  0.6062039616437354  0.9880852059454006  0.47748285070347646  1.0000
  Cl  Cl1268    1.0  0.6435662694855228  0.9822110323660693  0.5516802174385369  1.0000
  Na  Na593     1.0  0.5957065384609598  0.9596675214419405  0.5844957784654882  1.0000
  Cl  Cl1269    1.0  0.6631468480832942  0.9468791498867962  0.4775490152774077  1.0000
  Cl  Cl1270    1.0  0.716258392163648  0.9545252934617232  0.527745182818917  1.0000
  Na  Na594     1.0  0.8402570066395658  0.9619088463838605  0.5346138926501521  1.0000
  Cl  Cl1271    1.0  0.9321575321870992  0.9077035191907061  0.5330693633774451  1.0000
  Cl  Cl1272    1.0  0.9461616777882295  0.9813136753321272  0.5135776934258939  1.0000
  Cl  Cl1273    1.0  0.9482541324388045  0.8325757131347379  0.5494078778525865  1.0000
  Pu  Pu226     1.0  0.9367704435758666  0.9550608129819791  0.567344680316754  1.0000
  Cl  Cl1274    1.0  0.08441896635026029  0.0301276252109953  0.6086644567368027  1.0000
  Na  Na595     1.0  0.10129341387424456  0.9813405546902866  0.6215086546512014  1.0000
  Pu  Pu227     1.0  0.14130664672344517  0.04213194656505449  0.5790971627612874  1.0000
  Na  Na596     1.0  0.15264105176645074  0.08215096881447409  0.7404415439355099  1.0000
  Cl  Cl1275    1.0  0.14771447894439058  0.02056624466148233  0.6294380653082713  1.0000
  Na  Na597     1.0  0.17182443615634116  0.07083496579359315  0.6681009205563944  1.0000
  Cl  Cl1276    1.0  0.24398806930019068  0.9916808370099756  0.6189902655559442  1.0000
  Cl  Cl1277    1.0  0.2225631532040865  0.05851036654884813  0.635177842096805  1.0000
  Na  Na598     1.0  0.3110169179783902  0.06630476012223974  0.5719989445642284  1.0000
  Na  Na599     1.0  0.43543939925605496  0.11650072089945555  0.6289687103619467  1.0000
  Na  Na600     1.0  0.2633825600337804  0.02661469986383443  0.6566813286244524  1.0000
  Na  Na601     1.0  0.46769256140459076  0.030238864400917168  0.6499242715117263  1.0000
  Cl  Cl1278    1.0  0.46316855866204343  0.0726757882989359  0.6306600422830636  1.0000
  Na  Na602     1.0  0.5637469816092437  0.04095297656331751  0.6132380829097984  1.0000
  Cl  Cl1279    1.0  0.6518699235138913  0.07920561145306698  0.6044299240052045  1.0000
  Pu  Pu228     1.0  0.6394103071854679  0.03537364886656714  0.6560631033867825  1.0000
  Cl  Cl1280    1.0  0.6927100067729387  0.04217578059528393  0.6556702512290659  1.0000
  Na  Na603     1.0  0.7299978794690535  0.026080007400752732  0.7115855191297554  1.0000
  Cl  Cl1281    1.0  0.7792760135472672  0.9927456731216812  0.6172244984891547  1.0000
  Na  Na604     1.0  0.8134768953409034  0.022505879822705483  0.5794217827021375  1.0000
  Na  Na605     1.0  0.8704239170663328  0.9533343311309612  0.6536026082937152  1.0000
  Cl  Cl1282    1.0  0.8284859154086142  0.030719384619092672  0.6317993135404418  1.0000
  Na  Na606     1.0  0.007811865156195312  0.010561251320189867  0.5810965734797715  1.0000
  Cl  Cl1283    1.0  0.9089606460953994  0.9915319667186304  0.6408059661668296  1.0000
  Pu  Pu229     1.0  0.06382627653563482  0.0756854493556324  0.6343135673498284  1.0000
  Cl  Cl1284    1.0  0.07784344828725794  0.12312234739991622  0.6068945543841425  1.0000
  Cl  Cl1285    1.0  0.007428317391687754  0.18748972609173234  0.581929833582718  1.0000
  Cl  Cl1286    1.0  0.15428524142864164  0.10102751499275846  0.6079283758518179  1.0000
  Cl  Cl1287    1.0  0.10838336149956217  0.1722551261797747  0.6852065305605508  1.0000
  Pu  Pu230     1.0  0.20566037897188796  0.13258512205784231  0.6205658094726815  1.0000
  Cl  Cl1288    1.0  0.21835549983064784  0.1251897835709734  0.5640137075479039  1.0000
  Pu  Pu231     1.0  0.29244741677600544  0.1569717298945428  0.65654899947659  1.0000
  Cl  Cl1289    1.0  0.3361718619298671  0.1259531573427049  0.6758959344226666  1.0000
  Cl  Cl1290    1.0  0.39316437179987423  0.1059764183585204  0.5838362003691112  1.0000
  Cl  Cl1291    1.0  0.3993259477472193  0.18274448555510245  0.5860651194534193  1.0000
  Cl  Cl1292    1.0  0.5317067866830489  0.09174710644173031  0.5912817825793093  1.0000
  Cl  Cl1293    1.0  0.5524803952545178  0.13821593406368293  0.6544689506836271  1.0000
  Cl  Cl1294    1.0  0.5199088160939378  0.015945869081718266  0.6261298366117102  1.0000
  Pu  Pu232     1.0  0.5257829896732692  0.1526042477222015  0.5980285014773586  1.0000
  Cl  Cl1295    1.0  0.5752348057580523  0.14808686143704725  0.574006625854454  1.0000
  Na  Na607     1.0  0.6205451330433279  0.11976925085165797  0.600488996570426  1.0000
  Na  Na608     1.0  0.7005194941397583  0.0913066984965006  0.6102275947959279  1.0000
  Cl  Cl1296    1.0  0.7081511642141378  0.14160769553483224  0.6388417053782464  1.0000
  Cl  Cl1297    1.0  0.7553389112847119  0.08252169719278246  0.5925058271970368  1.0000
  Cl  Cl1298    1.0  0.7980316026138335  0.09373431806689587  0.6731955927490986  1.0000
  Na  Na609     1.0  0.812137062718796  0.10389761015131879  0.6041838744958977  1.0000
  Cl  Cl1299    1.0  0.8666546039951885  0.1039065010159408  0.6133435326995014  1.0000
  Pu  Pu233     1.0  0.8827863541767947  0.036958083647926396  0.6247920716325384  1.0000
  Cl  Cl1300    1.0  0.8851103848361289  0.16788847106460753  0.6213577167169207  1.0000
  Cl  Cl1301    1.0  0.014391994062943494  0.05913955029407535  0.609367455334822  1.0000
  Na  Na610     1.0  0.9793597527582206  0.07428813625992238  0.66344665630892  1.0000
  Cl  Cl1302    1.0  0.03163080162499527  0.20098006242342809  0.668599222503814  1.0000
  Pu  Pu234     1.0  0.016972081623391533  0.22695896208464214  0.6178447913697599  1.0000
  Na  Na611     1.0  0.08726300920783521  0.25050527983241616  0.6358684348372121  1.0000
  Cl  Cl1303    1.0  0.16804313075617178  0.1740008371100913  0.6211178701364201  1.0000
  Cl  Cl1304    1.0  0.22590032890174258  0.17359309792324015  0.6518409765127964  1.0000
  Cl  Cl1305    1.0  0.3360602092113581  0.1964800443389308  0.6497071690035144  1.0000
  Na  Na612     1.0  0.2978646412666243  0.23599249406918946  0.6404854815118503  1.0000
  Cl  Cl1306    1.0  0.39348899174072427  0.23816558679424307  0.638556370653168  1.0000
  Na  Na613     1.0  0.44020531622203835  0.2235928393858912  0.597954066331686  1.0000
  Cl  Cl1307    1.0  0.470016592063925  0.15976573579308223  0.6055609246908413  1.0000
  Na  Na614     1.0  0.4902629516868793  0.2572147811576292  0.6924846336929855  1.0000
  Cl  Cl1308    1.0  0.51930299671388  0.19457305725965682  0.6427578210978007  1.0000
  Na  Na615     1.0  0.5301725956250188  0.24345875270874087  0.6212336581407997  1.0000
  Cl  Cl1309    1.0  0.6414779501208185  0.16787833961422433  0.5659118037625559  1.0000
  Cl  Cl1310    1.0  0.679117322115943  0.2009064543349296  0.6247321099874131  1.0000
  Na  Na616     1.0  0.7223579388229326  0.18525749877872769  0.5867495092650205  1.0000
  Cl  Cl1311    1.0  0.7846001941057952  0.15483936973531562  0.6059806562067175  1.0000
  Cl  Cl1312    1.0  0.7395545251162445  0.2310818420977315  0.5988286792933394  1.0000
  Na  Na617     1.0  0.8399385896275218  0.18062535831066148  0.5938043069604372  1.0000
  Na  Na618     1.0  0.9166005867415203  0.18639015357871283  0.5740024905685832  1.0000
  Cl  Cl1313    1.0  0.8950929649280023  0.23768382599030632  0.5999452064784286  1.0000
  Cl  Cl1314    1.0  0.14025483676223227  0.2548059771379456  0.5969057713634631  1.0000
  Pu  Pu235     1.0  0.1645862385325589  0.3057092785633449  0.613866646362145  1.0000
  Cl  Cl1315    1.0  0.19986870434567705  0.333624525833515  0.6440459626465243  1.0000
  Cl  Cl1316    1.0  0.15495743214692415  0.2750378632603524  0.6631179010821991  1.0000
  Cl  Cl1317    1.0  0.20694417847044722  0.27133471476313925  0.6037930899811165  1.0000
  Cl  Cl1318    1.0  0.25501480907441604  0.27294540860977745  0.6618917888215361  1.0000
  Cl  Cl1319    1.0  0.32727479437905294  0.24740588307232542  0.5928676647107233  1.0000
  Pu  Pu236     1.0  0.2959975596960026  0.30486774788865717  0.7018324474037061  1.0000
  Cl  Cl1320    1.0  0.374863664179085  0.30978253514598586  0.6743017817195112  1.0000
  Cl  Cl1321    1.0  0.4358115749844181  0.2797706979393702  0.679193824904551  1.0000
  Na  Na619     1.0  0.5681324522751225  0.320902318852302  0.6332239195228985  1.0000
  Cl  Cl1322    1.0  0.5558051650945616  0.2847681909141129  0.5878308865202089  1.0000
  Cl  Cl1323    1.0  0.5958016500359858  0.21785926552616366  0.6271719286511269  1.0000
  Na  Na620     1.0  0.6594912553735941  0.2903384209819477  0.6519691703747881  1.0000
  Pu  Pu237     1.0  0.6412670505414128  0.21735062536406738  0.5913768941543354  1.0000
  Na  Na621     1.0  0.7714830673239302  0.2793675075669768  0.5815225079244538  1.0000
  Cl  Cl1324    1.0  0.6674061925301166  0.261747054471918  0.6064934316546844  1.0000
  Cl  Cl1325    1.0  0.8032027775951456  0.2889406943576506  0.6243413254726318  1.0000
  Na  Na622     1.0  0.9392640209558996  0.27173583749259733  0.5837348858652791  1.0000
  Na  Na623     1.0  0.8593454862187236  0.28454075019122427  0.6010700042352595  1.0000
  Cl  Cl1326    1.0  0.012277105486520013  0.2776079434289933  0.6110939371858398  1.0000
  Cl  Cl1327    1.0  0.9359909421892394  0.3269398362235261  0.6678817504052472  1.0000
  Cl  Cl1328    1.0  0.08747432231582804  0.40087254466286165  0.6021389756328358  1.0000
  Cl  Cl1329    1.0  0.038978170795764044  0.35040138061095066  0.5914409910853312  1.0000
  Pu  Pu238     1.0  0.06544296654678554  0.3662353902098665  0.643473225553432  1.0000
  Cl  Cl1330    1.0  0.011854603329110449  0.40125299096296624  0.6513985009246314  1.0000
  Cl  Cl1331    1.0  0.12598499904390928  0.35007469302716526  0.6477677199301555  1.0000
  Na  Na624     1.0  0.17702641901739002  0.3915454073814946  0.6379981070606233  1.0000
  Pu  Pu239     1.0  0.24812749045676283  0.3141411264537051  0.6169991254092014  1.0000
  Cl  Cl1332    1.0  0.2540988432540557  0.3788025239709281  0.6056312245506432  1.0000
  Cl  Cl1333    1.0  0.3000625457069021  0.32038540811846433  0.6371937939587718  1.0000
  Na  Na625     1.0  0.3603384725582462  0.3580351183282655  0.6547708265521883  1.0000
  Cl  Cl1334    1.0  0.35693719992959433  0.3476948360085766  0.5987728529340849  1.0000
  Cl  Cl1335    1.0  0.43903089503475917  0.3570612585057153  0.67653483608969  1.0000
  Na  Na626     1.0  0.4190595319222066  0.30680306167614546  0.6090986617532264  1.0000
  Cl  Cl1336    1.0  0.5679174174098461  0.3589758958638501  0.6732514191083531  1.0000
  Pu  Pu240     1.0  0.5259339276075498  0.3906956061350655  0.645212113262062  1.0000
  Cl  Cl1337    1.0  0.5101433385102764  0.33052099378755356  0.6308854153630169  1.0000
  Cl  Cl1338    1.0  0.6164532676742689  0.33178225597811745  0.6215624133675205  1.0000
  Cl  Cl1339    1.0  0.6359035847671131  0.4376497095539449  0.6175367125723926  1.0000
  Cl  Cl1340    1.0  0.6964586434147295  0.3786536536795829  0.5996412629669322  1.0000
  Na  Na627     1.0  0.6846730786832305  0.32862703285877226  0.5980967336942252  1.0000
  Cl  Cl1341    1.0  0.7921470908198253  0.3979075446935687  0.6248065451330858  1.0000
  Cl  Cl1342    1.0  0.832199402120504  0.3343812831478533  0.5741947813615709  1.0000
  Pu  Pu241     1.0  0.7983190049818473  0.3455279462123291  0.6151382467673857  1.0000
  Cl  Cl1343    1.0  0.898864345642082  0.33962069034603204  0.5965335956351  1.0000
  Pu  Pu242     1.0  0.8782106603608635  0.3791664291275499  0.626617800344453  1.0000
  Na  Na628     1.0  0.9893712798511889  0.3309241841599469  0.615752336719185  1.0000
  Cl  Cl1344    1.0  0.9308879994247938  0.3867381375568042  0.6282884558362164  1.0000
  Cl  Cl1345    1.0  0.030301513981858295  0.4647130879347504  0.6816543199976184  1.0000
  Cl  Cl1346    1.0  0.0038555958108365427  0.4389337158167977  0.5911205064303519  1.0000
  Cl  Cl1347    1.0  0.06587386333451263  0.4993006189572972  0.5865282714709379  1.0000
  Cl  Cl1348    1.0  0.18911778813902747  0.4448244305396119  0.6810298918311425  1.0000
  Na  Na629     1.0  0.07102043336489411  0.44652816831834086  0.5741534285028639  1.0000
  Cl  Cl1349    1.0  0.19448497567061088  0.5104390114500316  0.6872638352812248  1.0000
  Cl  Cl1350    1.0  0.227930754264257  0.47002899792153713  0.6224639056873333  1.0000
  Na  Na630     1.0  0.2639490941980665  0.4302951036329024  0.6368443623026976  1.0000
  Cl  Cl1351    1.0  0.290175077190055  0.4331629243842338  0.5475573374254475  1.0000
  Cl  Cl1352    1.0  0.36571227654722277  0.49877957293758884  0.6314395436696909  1.0000
  Cl  Cl1353    1.0  0.38760447994671615  0.4016809930505838  0.6187235396172839  1.0000
  Na  Na631     1.0  0.40339300140105416  0.4493877184979309  0.6303250841275367  1.0000
  Cl  Cl1354    1.0  0.4823935026749344  0.4294577082440853  0.6381883302106756  1.0000
  Na  Na632     1.0  0.4860077425259275  0.47830784023468137  0.593715398314217  1.0000
  Cl  Cl1355    1.0  0.5400435229983831  0.48785001238132497  0.5994262281016557  1.0000
  Cl  Cl1356    1.0  0.5571346595019921  0.4328176280140303  0.6703091632113489  1.0000
  Na  Na633     1.0  0.5819587805838129  0.47425319243845865  0.6301762138361916  1.0000
  Cl  Cl1357    1.0  0.6933509760828974  0.4952294300175917  0.5601616887593456  1.0000
  Pu  Pu243     1.0  0.6569315134196299  0.4488191166907095  0.5632796943058545  1.0000
  Cl  Cl1358    1.0  0.7098631725646082  0.45977762424806823  0.616513229319394  1.0000
  Cl  Cl1359    1.0  0.7997746256083341  0.4745302565917956  0.6007329784367973  1.0000
  Pu  Pu244     1.0  0.7568751699856774  0.4803320626683897  0.6339703386225601  1.0000
  Na  Na634     1.0  0.9286611479834211  0.5282786346962376  0.5813343524173369  1.0000
  Cl  Cl1360    1.0  0.8800736066456146  0.4105925341019454  0.5816796487875405  1.0000
  Cl  Cl1361    1.0  0.9338633376087634  0.4660611911285991  0.6190440242722632  1.0000
  Pu  Pu245     1.0  0.9870451815489192  0.44870332868632984  0.6480199723682682  1.0000
  Cl  Cl1362    1.0  0.019304238119461668  0.49802901855205656  0.6313423644517294  1.0000
  Cl  Cl1363    1.0  0.08140082795752884  0.571194631462377  0.6193893206424669  1.0000
  Na  Na635     1.0  0.07013920394584763  0.5049535547425461  0.6439942715731404  1.0000
  Cl  Cl1364    1.0  0.17207441418722505  0.5253756640150051  0.6079387140664946  1.0000
  Cl  Cl1365    1.0  0.2568694847874256  0.5559395618853594  0.5986053738563215  1.0000
  Na  Na636     1.0  0.15037925715947056  0.5514899942884847  0.6552960078577674  1.0000
  Cl  Cl1366    1.0  0.2827274273369217  0.4816119336453718  0.6728316875924768  1.0000
  Cl  Cl1367    1.0  0.3276986611807998  0.5223176201136215  0.5768434319617551  1.0000
  Cl  Cl1368    1.0  0.37778317600380024  0.546256790019112  0.5257809220303338  1.0000
  Pu  Pu246     1.0  0.3851853377123558  0.5344402106435826  0.5748626300296892  1.0000
  Pu  Pu247     1.0  0.46280878879129245  0.5420429337168672  0.623369533293017  1.0000
  Cl  Cl1369    1.0  0.4469375616195403  0.5377505069830791  0.5657732716858874  1.0000
  Na  Na637     1.0  0.577926876859879  0.5461410020147324  0.6031459177423516  1.0000
  Cl  Cl1370    1.0  0.5522756986039179  0.5552655102884351  0.5354947085406115  1.0000
  Cl  Cl1371    1.0  0.6146461477487724  0.5297011730357588  0.5122709430907523  1.0000
  Cl  Cl1372    1.0  0.7529735277666707  0.5180851550249584  0.5850705832015157  1.0000
  Cl  Cl1373    1.0  0.6991899997323279  0.5747695860975984  0.571866615416366  1.0000
  Na  Na638     1.0  0.759236418217848  0.5733904682597195  0.6024201750720435  1.0000
  Cl  Cl1374    1.0  0.8053076381033326  0.6024801367171687  0.5981215454094494  1.0000
  Cl  Cl1375    1.0  0.6780421477895606  0.5433310752655908  0.6276929746708354  1.0000
  Na  Na639     1.0  0.8492057652637637  0.5446316226719263  0.5324097852810683  1.0000
  Cl  Cl1376    1.0  0.9101536760690968  0.5287335161420147  0.5042071356428844  1.0000
  Na  Na640     1.0  0.9113467060427941  0.5859348579484923  0.5145122680326725  1.0000
  Pu  Pu248     1.0  0.03365171583000706  0.5914285852277191  0.5787663398916313  1.0000
  Cl  Cl1377    1.0  0.07805000581649947  0.6230221692798781  0.5829574521215872  1.0000
  Cl  Cl1378    1.0  0.14633039876346682  0.6175346449294572  0.6579777407449173  1.0000
  Na  Na641     1.0  0.15639403045840583  0.6336850038974817  0.7236977714450399  1.0000
  Cl  Cl1379    1.0  0.18562802039274254  0.6193210884256003  0.5959773996854907  1.0000
  Cl  Cl1380    1.0  0.2718847077839425  0.6744527196537918  0.6982450869108725  1.0000
  Na  Na642     1.0  0.3807171613290629  0.7043301600696097  0.6683965934961497  1.0000
  Cl  Cl1381    1.0  0.38570224844619344  0.5798932052913974  0.6018433026930807  1.0000
  Na  Na643     1.0  0.48664250890708016  0.6162630445242165  0.6479434695796602  1.0000
  Cl  Cl1382    1.0  0.45798084253724847  0.5952764687304067  0.702109511557043  1.0000
  Cl  Cl1383    1.0  0.4741146603617901  0.5905973927677082  0.5986219149998042  1.0000
  Cl  Cl1384    1.0  0.5211659429986311  0.549004687480193  0.602440851501397  1.0000
  Na  Na644     1.0  0.5763906181589133  0.6434649549816907  0.5771907959748941  1.0000
  Cl  Cl1385    1.0  0.6196105584365493  0.5773189898368859  0.5759564131424897  1.0000
  Pu  Pu249     1.0  0.6574174095094373  0.5930041291444563  0.6109471345374299  1.0000
  Cl  Cl1386    1.0  0.6275296308789426  0.6444801676629478  0.6012622950282471  1.0000
  Cl  Cl1387    1.0  0.6937748428846442  0.6353556593892451  0.620239121888896  1.0000
  Na  Na645     1.0  0.81569754385347  0.5321575328429555  0.6266405444167418  1.0000
  Na  Na646     1.0  0.9080012597733967  0.576824823175337  0.6310611650125217  1.0000
  Cl  Cl1388    1.0  0.8665781012065804  0.5575254440167734  0.6073432329011136  1.0000
  Cl  Cl1389    1.0  0.9700326154768536  0.6605147386265926  0.6235122006555562  1.0000
  Cl  Cl1390    1.0  0.9313180691553467  0.5888833167743024  0.5814625462793287  1.0000
  Cl  Cl1391    1.0  0.0016778906023962037  0.6370738706685215  0.5581746838984736  1.0000
  Na  Na647     1.0  0.023710281832547277  0.675008915603401  0.5961510816920601  1.0000
  Na  Na648     1.0  0.13191458545390808  0.6636844352464852  0.6199827341649126  1.0000
  Cl  Cl1392    1.0  0.08168698973978139  0.6455450037746534  0.6501827268786451  1.0000
  Cl  Cl1393    1.0  0.055647301376267985  0.7152473147682614  0.5747489096682449  1.0000
  Pu  Pu250     1.0  0.1974822308696953  0.6508030197592504  0.6474079500594044  1.0000
  Cl  Cl1394    1.0  0.17994675789927936  0.6940312306086277  0.6147123123227035  1.0000
  Cl  Cl1395    1.0  0.2882314928308253  0.7382043542794605  0.6054513396152676  1.0000
  Na  Na649     1.0  0.23879828553246038  0.7644882312736389  0.6953090339426746  1.0000
  Cl  Cl1396    1.0  0.2462769500296239  0.6586228453407467  0.6214156107191106  1.0000
  Na  Na650     1.0  0.336407573224497  0.7410825132454687  0.613182256550544  1.0000
  Cl  Cl1397    1.0  0.32506241643822764  0.7261851458962668  0.6941594244706195  1.0000
  Na  Na651     1.0  0.44251073809495445  0.699256164306259  0.5765849765948363  1.0000
  Cl  Cl1398    1.0  0.38232578753276575  0.7475893855630174  0.6368898504472754  1.0000
  Cl  Cl1399    1.0  0.4704818117243789  0.6603327860482817  0.6126818869601892  1.0000
  Cl  Cl1400    1.0  0.5642680276289521  0.711666157204234  0.660717367634257  1.0000
  Cl  Cl1401    1.0  0.5146259883941168  0.7306264429214001  0.6104550355188164  1.0000
  Cl  Cl1402    1.0  0.5003881991412917  0.7011708016643938  0.7042536572810016  1.0000
  Pu  Pu251     1.0  0.6028109595868248  0.6857523882954835  0.6344872493563978  1.0000
  Cl  Cl1403    1.0  0.6303250841275367  0.7247109164833617  0.6150824204081313  1.0000
  Na  Na652     1.0  0.7136097415634637  0.666583270641847  0.6625947874195555  1.0000
  Pu  Pu252     1.0  0.7825739040291515  0.7099231342097333  0.6255322878033939  1.0000
  Cl  Cl1404    1.0  0.761194476077625  0.657975673101982  0.6278480478909867  1.0000
  Cl  Cl1405    1.0  0.82686901863317  0.6698356729791536  0.6252634942217983  1.0000
  Cl  Cl1406    1.0  0.7318463522532571  0.7182267882381018  0.6518389088698611  1.0000
  Cl  Cl1407    1.0  0.9113074208270225  0.7052089083171338  0.6593465203681195  1.0000
  Cl  Cl1408    1.0  0.023756183505712063  0.7043983922864763  0.6451025281864884  1.0000
  Na  Na653     1.0  0.8887928569039885  0.6621833264754208  0.6429873294636246  1.0000
  Na  Na654     1.0  0.9673632884473159  0.7190186954823412  0.6444801676629478  1.0000
  Na  Na655     1.0  0.06309887975097844  0.7656399083886292  0.6139183374355289  1.0000
  Cl  Cl1409    1.0  0.021907503957214986  0.7823712750214872  0.6578474792399902  1.0000
  Cl  Cl1410    1.0  0.1134424702337783  0.7219692219510866  0.6568550106310219  1.0000
  Pu  Pu253     1.0  0.17404880642619147  0.7368831304437714  0.6533586264273438  1.0000
  Cl  Cl1411    1.0  0.16918757112088836  0.7632249014401394  0.7047292151561324  1.0000
  Na  Na656     1.0  0.2946391182874772  0.8199444824426804  0.6329820052994625  1.0000
  Cl  Cl1412    1.0  0.34669823211373757  0.8244540116846802  0.6265082152688793  1.0000
  Pu  Pu254     1.0  0.3953043822379622  0.7975705182392503  0.6139534873654299  1.0000
  Cl  Cl1413    1.0  0.44519453862503966  0.7636487682418864  0.5820414863012269  1.0000
  Cl  Cl1414    1.0  0.4497309472251992  0.8209721009815497  0.6237044914485438  1.0000
  Na  Na657     1.0  0.5552034810003745  0.807220207818532  0.6715559519013655  1.0000
  Cl  Cl1415    1.0  0.5921439896833505  0.7765777395166344  0.6437316809203509  1.0000
  Cl  Cl1416    1.0  0.6638250349660892  0.791084322351055  0.591498885087521  1.0000
  Cl  Cl1417    1.0  0.7766873245922079  0.7633965158037737  0.6055195718321342  1.0000
  Cl  Cl1418    1.0  0.7385289742203106  0.8287112884885673  0.5837803740098568  1.0000
  Cl  Cl1419    1.0  0.7858635239392945  0.8145603402390271  0.6658079045410905  1.0000
  Na  Na658     1.0  0.8166445243178606  0.7669053058650638  0.7367942217975514  1.0000
  Cl  Cl1420    1.0  0.8520425713710649  0.7921470908198253  0.6205327271857158  1.0000
  Cl  Cl1421    1.0  0.9436577621935198  0.7572721574292647  0.6050047287412319  1.0000
  Pu  Pu255     1.0  0.9637242368810985  0.7948143502064279  0.6374977374702685  1.0000
  Na  Na659     1.0  0.06562595294656409  0.8632491960806657  0.6294153212359824  1.0000
  Cl  Cl1422    1.0  0.09884429081732163  0.8155404029903833  0.6220379712426511  1.0000
  Cl  Cl1423    1.0  0.11263278126029497  0.8917082334428331  0.6380477304910717  1.0000
  Na  Na660     1.0  0.22433098791381142  0.8795980487704839  0.6367947388722492  1.0000
  Cl  Cl1424    1.0  0.06732658926089005  0.8775179999775211  0.5761900567941843  1.0000
  Cl  Cl1425    1.0  0.16958662620741108  0.8351189139452192  0.618535384110167  1.0000
  Pu  Pu256     1.0  0.29109931358215674  0.9147086934556744  0.6567350873407715  1.0000
  Cl  Cl1426    1.0  0.273361004839783  0.8924773966147835  0.6002202029888304  1.0000
  Cl  Cl1427    1.0  0.342343776091889  0.8939206113836584  0.6445483998798144  1.0000
  Na  Na661     1.0  0.34292271611378716  0.8537421738639231  0.6855931797894615  1.0000
  Na  Na662     1.0  0.46522379573978206  0.8171903820527932  0.6900096650993707  1.0000
  Pu  Pu257     1.0  0.563029509510677  0.8779129197781731  0.6092330585440241  1.0000
  Cl  Cl1428    1.0  0.5783652171621733  0.8632119785078296  0.6608538320679902  1.0000
  Na  Na663     1.0  0.6320681071220375  0.8032751450978829  0.6388995993804362  1.0000
  Cl  Cl1429    1.0  0.5935065663777466  0.8322841754808534  0.5950965837950313  1.0000
  Na  Na664     1.0  0.7220601982402421  0.8645662846304842  0.6199434489491409  1.0000
  Cl  Cl1430    1.0  0.6702864191390602  0.8609809917805861  0.627856318462728  1.0000
  Na  Na665     1.0  0.7937784610958171  0.8139586561448401  0.6119933618627174  1.0000
  Cl  Cl1431    1.0  0.7387357385138457  0.8724026513554635  0.6797086679954534  1.0000
  Cl  Cl1432    1.0  0.8267511629858549  0.8576562219405421  0.616201015236156  1.0000
  Cl  Cl1433    1.0  0.8941108345337107  0.8823356080168882  0.6598014018138966  1.0000
  Pu  Pu258     1.0  0.8467183908125367  0.8286120416276707  0.6586993481293547  1.0000
  Cl  Cl1434    1.0  0.8954051790112401  0.8697581360411498  0.5846032958981264  1.0000
  Na  Na666     1.0  0.9400001018408844  0.8698222329721458  0.6136164615669677  1.0000
  Cl  Cl1435    1.0  8.565086801114225e-05  0.8045322720025762  0.5889081284895266  1.0000
  Cl  Cl1436    1.0  0.011151377290368317  0.9016432577471933  0.6185126400378782  1.0000
  Cl  Cl1437    1.0  0.0273602919063219  0.9812805930451615  0.6154132432777875  1.0000
  Pu  Pu259     1.0  0.03266772455707365  0.9231839618476769  0.5746662039508308  1.0000
  Cl  Cl1438    1.0  0.09001545548337407  0.9427914198036079  0.5837286829364731  1.0000
  Cl  Cl1439    1.0  0.23167939090604786  0.9055531705379415  0.6814496233470186  1.0000
  Na  Na667     1.0  0.24659123175579722  0.03709082632437591  0.5871899172102502  1.0000
  Cl  Cl1440    1.0  0.3344743270799441  0.9547320577552583  0.6329923435141392  1.0000
  Na  Na668     1.0  0.20759135070921197  0.0017253343091887293  0.654497897684722  1.0000
  Na  Na669     1.0  0.32466749663757566  0.9871361578380747  0.5930847672189351  1.0000
  Na  Na670     1.0  0.34505859126600447  0.0128583199156471  0.6498374305084414  1.0000
  Cl  Cl1441    1.0  0.3045576014483546  0.03447443095398311  0.621554142795779  1.0000
  Cl  Cl1442    1.0  0.45935168980338603  0.9807760881689359  0.6623032497656709  1.0000
  Na  Na671     1.0  0.5195924667248292  0.8732710613883108  0.6700114226286585  1.0000
  Cl  Cl1443    1.0  0.5153062429198472  0.84844694030649  0.719678273578718  1.0000
  Cl  Cl1444    1.0  0.5690236063802587  0.9715606036060778  0.6488532324712146  1.0000
  Cl  Cl1445    1.0  0.518353948606554  0.9059584285532702  0.6273332048000843  1.0000
  Na  Na672     1.0  0.5107367520327221  0.9722656698470323  0.6575724827295886  1.0000
  Cl  Cl1446    1.0  0.6192404503511216  0.016946794350292192  0.605441001400591  1.0000
  Cl  Cl1447    1.0  0.6516962415073217  0.9829863984668259  0.6740888144971701  1.0000
  Cl  Cl1448    1.0  0.6132401505527338  0.9145908378083595  0.6239980967453637  1.0000
  Cl  Cl1449    1.0  0.6904934935462428  0.9977948571698075  0.596450889917686  1.0000
  Na  Na673     1.0  0.6649994561533683  0.9437673472690934  0.6003401262790807  1.0000
  Na  Na674     1.0  0.6513385392795061  0.8482794612287267  0.5834288747108471  1.0000
  Pu  Pu260     1.0  0.7829171327564197  0.9612864858603201  0.6617284450296435  1.0000
  Cl  Cl1450    1.0  0.7250789569258541  0.9403826157839242  0.6314684906707858  1.0000
  Cl  Cl1451    1.0  0.8209514245521963  0.9406782887236794  0.6251001504299056  1.0000
  Na  Na675     1.0  0.857714115942732  0.9060824871293913  0.6077650320599252  1.0000
  Cl  Cl1452    1.0  0.9380813291968789  0.9193381459879246  0.6061915557861233  1.0000
  Pu  Pu261     1.0  0.026994939399645427  0.9721560847714588  0.6739544177063723  1.0000
  Cl  Cl1453    1.0  0.091544890962653  0.9805010916585343  0.6730963458882018  1.0000
  Cl  Cl1454    1.0  0.02295249069674124  0.982969857323343  0.7297559652456175  1.0000
  Cl  Cl1455    1.0  0.030699328482619772  0.03921822414055826  0.6786024790250407  1.0000
  Na  Na676     1.0  0.08204779343200008  0.023410680371214958  0.7117281864922945  1.0000
  Cl  Cl1456    1.0  0.14242772272299234  0.038911592693245754  0.7100678692152079  1.0000
  Pu  Pu262     1.0  0.18546984570818822  0.01363935135804648  0.7384193891447369  1.0000
  Cl  Cl1457    1.0  0.1984151513621255  0.06867779391914174  0.7183591173859643  1.0000
  Na  Na677     1.0  0.2910145402218074  0.9896173293604955  0.7508790054731603  1.0000
  Cl  Cl1458    1.0  0.28484882898859154  0.04633008878099059  0.7074233539008943  1.0000
  Cl  Cl1459    1.0  0.34910910377635646  0.02529016779944876  0.7077355679841324  1.0000
  Na  Na678     1.0  0.39230836762463905  0.03112484939871495  0.7497045842858812  1.0000
  Cl  Cl1460    1.0  0.4387145456656505  0.038741839208253456  0.7179972798722779  1.0000
  Pu  Pu263     1.0  0.4636234401078206  0.994625160549915  0.7222835036772599  1.0000
  Cl  Cl1461    1.0  0.5177191822254015  0.014496492736896118  0.7153775762731885  1.0000
  Na  Na679     1.0  0.5593139551558518  0.9770233162412744  0.7333557315960632  1.0000
  Cl  Cl1462    1.0  0.5141256188037618  0.08675685021726134  0.7137110560672958  1.0000
  Cl  Cl1463    1.0  0.5872209318542805  0.07588270249166486  0.640018194208461  1.0000
  Na  Na680     1.0  0.6611970607952584  0.05673364097450125  0.7348961255828994  1.0000
  Cl  Cl1464    1.0  0.6081289372165468  0.03276738494655756  0.7051737583872328  1.0000
  Cl  Cl1465    1.0  0.6934998463742426  0.015896038886976313  0.749791425289166  1.0000
  Cl  Cl1466    1.0  0.77469411680253  0.04701158389248219  0.7463570703735484  1.0000
  Cl  Cl1467    1.0  0.8230686909179953  0.9923507533210293  0.6823511156668315  1.0000
  Na  Na681     1.0  0.8158567523594921  0.047984203129271166  0.7020929704135602  1.0000
  Cl  Cl1468    1.0  0.9210563572672011  0.08866383729653532  0.7670810555145686  1.0000
  Pu  Pu264     1.0  0.9144915909474627  0.0592123313253997  0.7252402330748114  1.0000
  Cl  Cl1469    1.0  0.911197835751449  0.017201465930639342  0.7783745212274542  1.0000
  Cl  Cl1470    1.0  0.03636404983260013  0.11760546251981344  0.6568777547033108  1.0000
  Cl  Cl1471    1.0  0.11049401140796818  0.08154452914153572  0.6675819421796214  1.0000
  Pu  Pu265     1.0  0.060877610945531166  0.15783745199157415  0.6997586015395493  1.0000
  Cl  Cl1472    1.0  0.11708607061445334  0.09337992406777677  0.7832231439108517  1.0000
  Cl  Cl1473    1.0  0.26343631875009954  0.11831321669658398  0.6285779258471654  1.0000
  Pu  Pu266     1.0  0.22520560087546476  0.17284275030200139  0.7069477960257637  1.0000
  Cl  Cl1474    1.0  0.20934057663251868  0.14395095527346521  0.748029793508247  1.0000
  Pu  Pu267     1.0  0.32441110891359215  0.08097385969137892  0.7122678412984211  1.0000
  Cl  Cl1475    1.0  0.27040634308516676  0.12438360959048016  0.7020660910554006  1.0000
  Cl  Cl1476    1.0  0.3116475490736722  0.09981174094677224  0.7621001036833088  1.0000
  Cl  Cl1477    1.0  0.3671100031715198  0.11916839381464504  0.7250458746388885  1.0000
  Na  Na682     1.0  0.42001064767246793  0.10175077649154414  0.7085874368734968  1.0000
  Cl  Cl1478    1.0  0.4234429349451501  0.1431832394515695  0.674372081579313  1.0000
  Na  Na683     1.0  0.5309438264399046  0.07252464360036176  0.6448792227494705  1.0000
  Cl  Cl1479    1.0  0.5601616887593456  0.15790278950833123  0.726681380200751  1.0000
  Na  Na684     1.0  0.576535353164388  0.10262228798879447  0.6912254391453568  1.0000
  Cl  Cl1480    1.0  0.49021953118523687  0.1390082548365093  0.7474487858434136  1.0000
  Cl  Cl1481    1.0  0.6369105268766289  0.1027810829662294  0.6934915758025012  1.0000
  Cl  Cl1482    1.0  0.6343673260661475  0.1631171782269922  0.6471515623354209  1.0000
  Pu  Pu268     1.0  0.6654274582409858  0.14760489386881698  0.6938348045297695  1.0000
  Cl  Cl1483    1.0  0.7100471927858544  0.11788666195902114  0.7057340896227128  1.0000
  Na  Na685     1.0  0.7496280814972732  0.11985278362624613  0.6678300593318636  1.0000
  Cl  Cl1484    1.0  0.8584791438288117  0.06399210149904995  0.7414567566167671  1.0000
  Cl  Cl1485    1.0  0.8786221213049983  0.0587814345376726  0.6731521722474562  1.0000
  Na  Na686     1.0  0.8984590876267531  0.11106137262942843  0.6476953524274182  1.0000
  Cl  Cl1486    1.0  0.9386023752165873  0.21026274538168513  0.678085568291203  1.0000
  Cl  Cl1487    1.0  0.9738391461208342  0.05310017204420944  0.7161777540891693  1.0000
  Na  Na687     1.0  0.9321327204718749  0.16685961193997703  0.828862226422848  1.0000
  Na  Na688     1.0  0.999590464031438  0.22476519293023506  0.7163783154538983  1.0000
  Cl  Cl1488    1.0  0.06884444593973102  0.1812733576066004  0.7494998876352815  1.0000
  Na  Na689     1.0  0.11905053816733005  0.12953576225678706  0.6366438009379686  1.0000
  Cl  Cl1489    1.0  0.18462169857610736  0.21255989668285977  0.7061517534956537  1.0000
  Cl  Cl1490    1.0  0.19037367445795952  0.1288643985956787  0.6770930996822347  1.0000
  Cl  Cl1491    1.0  0.27921036670389016  0.201645843448611  0.6946763352044572  1.0000
  Na  Na690     1.0  0.22071261277694765  0.2656466290479894  0.7174679632808282  1.0000
  Cl  Cl1492    1.0  0.413873883440347  0.20880092182639215  0.7094455086916673  1.0000
  Na  Na691     1.0  0.3946861570002923  0.18301906853691702  0.6422698573650579  1.0000
  Cl  Cl1493    1.0  0.5023834745739051  0.21244204103554476  0.7370464742356642  1.0000
  Na  Na692     1.0  0.4510149534880519  0.21573579623155847  0.7625529174861505  1.0000
  Na  Na693     1.0  0.5471541470530542  0.2512206842880475  0.7278475308162887  1.0000
  Cl  Cl1494    1.0  0.5956176298147396  0.24112024854885922  0.7494523318477683  1.0000
  Na  Na694     1.0  0.4927503261381061  0.13663191281091075  0.6903735702559923  1.0000
  Na  Na695     1.0  0.5778028182837579  0.18557756990511998  0.6762495013646116  1.0000
  Cl  Cl1495    1.0  0.6908057076294807  0.1945141294359993  0.69628496140816  1.0000
  Na  Na696     1.0  0.7848772582591322  0.21252888203882953  0.6276330130257102  1.0000
  Cl  Cl1496    1.0  0.8300552563965454  0.22539168873964632  0.660198389257484  1.0000
  Cl  Cl1497    1.0  0.7892709994967525  0.17414040300822747  0.702663639863717  1.0000
  Pu  Pu269     1.0  0.8074352426838086  0.22191184567945105  0.7073261746829328  1.0000
  Cl  Cl1498    1.0  0.8712757859556972  0.19399680517357457  0.698307116198933  1.0000
  Pu  Pu270     1.0  0.8887866539751825  0.21838031154587204  0.6492316111283838  1.0000
  Cl  Cl1499    1.0  0.01288532333238278  0.16936993722778632  0.7217624576575515  1.0000
  Cl  Cl1500    1.0  0.02886946448483439  0.27609649644325196  0.7428834302421592  1.0000
  Na  Na697     1.0  0.02983505373564317  0.29465359178802464  0.6908408575593816  1.0000
  Cl  Cl1501    1.0  0.08058596987670713  0.3061290100792211  0.640683975233644  1.0000
  Pu  Pu271     1.0  0.11406131576432878  0.30869495496199134  0.687760069585709  1.0000
  Cl  Cl1502    1.0  0.08685651060674525  0.2646624310107625  0.6939692013205672  1.0000
  Na  Na698     1.0  0.12519474591401825  0.21499351241776757  0.7120486711472739  1.0000
  Cl  Cl1503    1.0  0.27550515056374164  0.2767932921124652  0.7429909476747973  1.0000
  Cl  Cl1504    1.0  0.16276609245656967  0.28258682761731785  0.7443866066561591  1.0000
  Cl  Cl1505    1.0  0.31896493742187837  0.2556599136702455  0.6847082286131314  1.0000
  Pu  Pu272     1.0  0.3786681271801303  0.25036674775574763  0.6962642849788065  1.0000
  Cl  Cl1506    1.0  0.32491561378981776  0.35590751374778967  0.703937307911893  1.0000
  Cl  Cl1507    1.0  0.3391472001138367  0.21237174117574287  0.733727907324426  1.0000
  Cl  Cl1508    1.0  0.4166321191161048  0.27012721128889444  0.742711815878525  1.0000
  Pu  Pu273     1.0  0.4319678267676011  0.3222566249749567  0.7194591034275709  1.0000
  Cl  Cl1509    1.0  0.4864336769706097  0.3059181104998154  0.7189070427638322  1.0000
  Cl  Cl1510    1.0  0.533181016095954  0.2747587314640801  0.6757201847731619  1.0000
  Cl  Cl1511    1.0  0.649215069984901  0.25820724976659754  0.6916431030182977  1.0000
  Pu  Pu274     1.0  0.6721535007096818  0.3276986611807998  0.7267744241328418  1.0000
  Cl  Cl1512    1.0  0.6222592090367336  0.330452761570687  0.7047498915854858  1.0000
  Cl  Cl1513    1.0  0.7085750310158847  0.30885416346801337  0.6394661335447223  1.0000
  Na  Na699     1.0  0.7102808364375491  0.24169091799901601  0.6467876571787993  1.0000
  Cl  Cl1514    1.0  0.7614922166603156  0.2476912177974038  0.6726972908016791  1.0000
  Na  Na700     1.0  0.7641966936197544  0.30208056521180443  0.6718557601269913  1.0000
  Cl  Cl1515    1.0  0.7555746225793418  0.3566063770599382  0.6647988947886394  1.0000
  Cl  Cl1516    1.0  0.8148415396782348  0.28058121397002767  0.71087631760293  1.0000
  Cl  Cl1517    1.0  0.8870953220540656  0.2722568835123057  0.6602521479738032  1.0000
  Na  Na701     1.0  0.8410778608849001  0.3366929079495754  0.718534867035469  1.0000
  Pu  Pu275     1.0  0.9351721555868405  0.28266539804886115  0.6997523986107432  1.0000
  Cl  Cl1518    1.0  0.9855068552050184  0.26475961022872396  0.6750854183920091  1.0000
  Cl  Cl1519    1.0  0.9597626330169665  0.31186671922481934  0.7531885626319471  1.0000
  Cl  Cl1520    1.0  0.022724016152384986  0.3273657706682084  0.6552629255708018  1.0000
  Na  Na702     1.0  0.03677199578374483  0.4104519343823415  0.7067658434474529  1.0000
  Cl  Cl1521    1.0  0.0856239886529827  0.3999751876289195  0.6827853206832551  1.0000
  Cl  Cl1522    1.0  0.1560530761383665  0.33413730128148195  0.7060669801353043  1.0000
  Cl  Cl1523    1.0  0.24811094931328  0.42759269431639896  0.7252981270770013  1.0000
  Cl  Cl1524    1.0  0.24997596324096635  0.3385103660897487  0.6958735004640253  1.0000
  Na  Na703     1.0  0.2723457921585257  0.38643212640237223  0.7083951460805092  1.0000
  Cl  Cl1525    1.0  0.3132230929904094  0.43579503384093526  0.6211095995646787  1.0000
  Cl  Cl1526    1.0  0.3935613592434616  0.36111797394487344  0.7171392080541074  1.0000
  Cl  Cl1527    1.0  0.4728079100266485  0.35011397824293694  0.7679163832604502  1.0000
  Na  Na704     1.0  0.45418258246500925  0.4091038311884929  0.6950547138616263  1.0000
  Na  Na705     1.0  0.5307763473621412  0.34124585769321775  0.7106798915240716  1.0000
  Na  Na706     1.0  0.6132546240532813  0.41445282346224516  0.6726249232989417  1.0000
  Cl  Cl1528    1.0  0.684559358321786  0.36097944186820496  0.6853512655660255  1.0000
  Cl  Cl1529    1.0  0.7640912438300516  0.363049152446491  0.5763575358719477  1.0000
  Na  Na707     1.0  0.7175878865710784  0.3954821995304023  0.6504804674613356  1.0000
  Cl  Cl1530    1.0  0.8376455736122178  0.3482675731016687  0.6539520399497895  1.0000
  Na  Na708     1.0  0.8097179204844357  0.38831368147354145  0.6800684378662043  1.0000
  Cl  Cl1531    1.0  0.8927255137670257  0.3096026502106103  0.7149413036138295  1.0000
  Na  Na709     1.0  0.9500695229360423  0.36935132811343996  0.6875574405780447  1.0000
  Cl  Cl1532    1.0  0.8858051128624067  0.38243744025127474  0.6878303694455109  1.0000
  Na  Na710     1.0  0.9901114960220444  0.47523945811862095  0.7209064534823164  1.0000
  Cl  Cl1533    1.0  0.13024599760508004  0.4543562644715787  0.62745519573327  1.0000
  Cl  Cl1534    1.0  0.025346821215877374  0.44048031273244004  0.7486273423165635  1.0000
  Pu  Pu276     1.0  0.17224664884373975  0.4819944475884117  0.645973005862271  1.0000
  Na  Na711     1.0  0.12722310363359732  0.457246829295199  0.7009619697279234  1.0000
  Na  Na712     1.0  0.25794465911380804  0.502135357421663  0.7134215860563468  1.0000
  Cl  Cl1535    1.0  0.15722832438281983  0.4791183562653389  0.7407723668051661  1.0000
  Cl  Cl1536    1.0  0.31793111595420304  0.43272665172487484  0.7127909549610648  1.0000
  Pu  Pu277     1.0  0.33331024410734167  0.4666876869380104  0.6646086716385872  1.0000
  Cl  Cl1537    1.0  0.39236005869802276  0.4584998209140215  0.6795804741334617  1.0000
  Cl  Cl1538    1.0  0.35374682688034814  0.5110758454741196  0.7003023916315464  1.0000
  Na  Na713     1.0  0.4301131510545915  0.5046620170886617  0.6845986435375578  1.0000
  Na  Na714     1.0  0.5307246562887574  0.4411440261146876  0.7334963313156669  1.0000
  Cl  Cl1539    1.0  0.507074956394216  0.39151439273746436  0.6969838247203086  1.0000
  Cl  Cl1540    1.0  0.5606620583497004  0.37484919067853756  0.7631628721520789  1.0000
  Cl  Cl1541    1.0  0.6305483895645546  0.47553099577250535  0.6706854742255828  1.0000
  Na  Na715     1.0  0.6327421587189618  0.46703298330821397  0.7944628509074182  1.0000
  Cl  Cl1542    1.0  0.6938141281004159  0.42488821735696025  0.7171619521263963  1.0000
  Na  Na716     1.0  0.6777712865650297  0.47864279839020824  0.7270907735019504  1.0000
  Na  Na717     1.0  0.8554707233578764  0.4716913828415591  0.601762664618602  1.0000
  Cl  Cl1543    1.0  0.7531575479879168  0.443174451477202  0.6753934971893765  1.0000
  Cl  Cl1544    1.0  0.8033185655995253  0.49193774246451333  0.6690954568082982  1.0000
  Cl  Cl1545    1.0  0.855911131303106  0.43208568241491613  0.6439322422850798  1.0000
  Cl  Cl1546    1.0  0.8797924072064068  0.47314493582511064  0.7049359794496675  1.0000
  Cl  Cl1547    1.0  0.7908382728417483  0.41948133108101815  0.7253001947199367  1.0000
  Cl  Cl1548    1.0  0.9646608791308123  0.498438411853256  0.6767829532419322  1.0000
  Pu  Pu278     1.0  0.8954548024416885  0.41878453541180494  0.7286766556333644  1.0000
  Cl  Cl1549    1.0  0.9402378807784497  0.4239763868224706  0.687594658150881  1.0000
  Cl  Cl1550    1.0  0.019044997048227395  0.5940544917556145  0.6425779361624252  1.0000
  Cl  Cl1551    1.0  0.050666142780714574  0.5452353744090488  0.6806970013185509  1.0000
  Cl  Cl1552    1.0  0.12201181637933936  0.5084085860875172  0.6703174337830905  1.0000
  Na  Na718     1.0  0.1280361008357772  0.5503589936028478  0.7553389112847119  1.0000
  Cl  Cl1553    1.0  0.2653096032495273  0.5578025081701103  0.6928175242055769  1.0000
  Na  Na719     1.0  0.1728162844724289  0.6022795753524397  0.7739001419153552  1.0000
  Na  Na720     1.0  0.31699240606155377  0.5575688645184158  0.7029303658023772  1.0000
  Cl  Cl1554    1.0  0.32637123441630467  0.6115364127740048  0.6491137554810688  1.0000
  Cl  Cl1555    1.0  0.3640953797717785  0.5817540839332132  0.7268943474230921  1.0000
  Cl  Cl1556    1.0  0.440591965450949  0.4901781783265299  0.6278935360355643  1.0000
  Cl  Cl1557    1.0  0.41905126135046517  0.5513287181395273  0.6545723328303947  1.0000
  Cl  Cl1558    1.0  0.4282584753415819  0.5135652875682818  0.7448352851731302  1.0000
  Na  Na721     1.0  0.5087662883153329  0.5468398653268809  0.7228934583431885  1.0000
  Cl  Cl1559    1.0  0.4866197648347913  0.5279354059689693  0.6706399860810052  1.0000
  Cl  Cl1560    1.0  0.5553461483629137  0.48156644550079414  0.7160454249413069  1.0000
  Cl  Cl1561    1.0  0.5889866989210699  0.5330693633774451  0.6602459450449971  1.0000
  Pu  Pu279     1.0  0.6062515174312485  0.5062582374347524  0.7126751669566852  1.0000
  Na  Na722     1.0  0.6814620292046307  0.49245465319835097  0.6565345259760426  1.0000
  Cl  Cl1562    1.0  0.7321730398370425  0.5177832791563973  0.663758870392158  1.0000
  Cl  Cl1563    1.0  0.7300226911842778  0.5642266747702451  0.7169924054056974  1.0000
  Na  Na723     1.0  0.7722212158518506  0.5220881117477975  0.7009743755855354  1.0000
  Cl  Cl1564    1.0  0.8716520969699311  0.49866585257614454  0.6451810986180317  1.0000
  Na  Na724     1.0  0.8328527772880748  0.4763518500178396  0.7289206374997358  1.0000
  Na  Na725     1.0  0.9148141432453774  0.47140191283061  0.6686509135771976  1.0000
  Cl  Cl1565    1.0  0.9872870957723553  0.5520027697364516  0.7308311395719999  1.0000
  Cl  Cl1566    1.0  0.028533058979252825  0.6146875006074793  0.717178493269879  1.0000
  Na  Na726     1.0  0.9917800838708725  0.5518352906586882  0.6646314157108758  1.0000
  Pu  Pu280     1.0  0.06681360704862954  0.5989899554422967  0.6712912936056407  1.0000
  Cl  Cl1567    1.0  0.0957213229277679  0.6100187628594574  0.7142403726587457  1.0000
  Pu  Pu281     1.0  0.07372511708862638  0.6400554117812973  0.7631546015803375  1.0000
  Na  Na727     1.0  0.2711300181125395  0.6103537210149843  0.6690809833077507  1.0000
  Cl  Cl1568    1.0  0.22571010575169032  0.6202804747476031  0.6901419942472331  1.0000
  Pu  Pu282     1.0  0.3271672769464147  0.6647306625717727  0.6861452404532001  1.0000
  Cl  Cl1569    1.0  0.30923254212518253  0.6097892544936335  0.7158303900760304  1.0000
  Cl  Cl1570    1.0  0.38225548767296386  0.6510635427691045  0.680419937165214  1.0000
  Na  Na728     1.0  0.38655411733555795  0.5982931597730835  0.6790573604708179  1.0000
  Cl  Cl1571    1.0  0.505065207461055  0.5960807818322582  0.7605307626953774  1.0000
  Pu  Pu283     1.0  0.49795044812051314  0.6307013951417706  0.7161301983016563  1.0000
  Cl  Cl1572    1.0  0.5225698725517343  0.5849299834819118  0.6890833610643334  1.0000
  Na  Na729     1.0  0.5739053113506217  0.603224488173895  0.688537503329401  1.0000
  Cl  Cl1573    1.0  0.5965046486340051  0.5562600465403388  0.7400259477055044  1.0000
  Cl  Cl1574    1.0  0.6231875807147061  0.591015056640649  0.6555296515094621  1.0000
  Cl  Cl1575    1.0  0.6233902097223705  0.6410085951744939  0.7118998008559287  1.0000
  Na  Na730     1.0  0.6600412483943973  0.5918793313876256  0.7015657214650458  1.0000
  Cl  Cl1576    1.0  0.70412546341901  0.6380477304910717  0.7146435630311391  1.0000
  Cl  Cl1577    1.0  0.8012778020223341  0.5734545651907154  0.6785693967380751  1.0000
  Na  Na731     1.0  0.8721090460586436  0.5331520690948591  0.6884961504706939  1.0000
  Na  Na732     1.0  0.9402047984914841  0.5946541082068663  0.7306202399925941  1.0000
  Cl  Cl1578    1.0  0.8610120064246164  0.6075603354093254  0.6536770434393878  1.0000
  Na  Na733     1.0  0.9747054885107462  0.6346878107211269  0.6951126078638162  1.0000
  Cl  Cl1579    1.0  0.9394893940358527  0.604864129021628  0.6754762029067904  1.0000
  Cl  Cl1580    1.0  0.9328563954992477  0.5733263713287235  0.7791498873282108  1.0000
  Cl  Cl1581    1.0  0.08589340252745888  0.6852230717040337  0.7304527609148307  1.0000
  Na  Na734     1.0  0.11368045593563718  0.7546276421149513  0.7055211224003717  1.0000
  Cl  Cl1582    1.0  0.1657511485623355  0.6933406378682205  0.6914818268693402  1.0000
  Na  Na735     1.0  0.1885258219666366  0.709414494047637  0.743902778209287  1.0000
  Cl  Cl1583    1.0  0.3326279219386759  0.6746987691630986  0.7437249609168469  1.0000
  Cl  Cl1584    1.0  0.22448606113396272  0.7171991696992325  0.6696268410426833  1.0000
  Na  Na736     1.0  0.27967145107847335  0.7164424123848941  0.6539396340921774  1.0000
  Na  Na737     1.0  0.4730870418229209  0.7666695945704338  0.6299983965437514  1.0000
  Cl  Cl1585    1.0  0.4634890433170228  0.6595243376605596  0.6756064644117175  1.0000
  Cl  Cl1586    1.0  0.5301229721945704  0.6460701850802325  0.6599854220351429  1.0000
  Cl  Cl1587    1.0  0.44479341589558163  0.7217417812281981  0.6500400595161059  1.0000
  Cl  Cl1588    1.0  0.5552427662161462  0.6414303943333055  0.7291067253639174  1.0000
  Pu  Pu284     1.0  0.49435895234180904  0.6939960806787268  0.6471019389049726  1.0000
  Cl  Cl1589    1.0  0.6356223853279053  0.7233710838612545  0.7435946994119198  1.0000
  Pu  Pu285     1.0  0.6628491075006036  0.6796590445650049  0.7320572518326628  1.0000
  Cl  Cl1590    1.0  0.6580935287492969  0.6854960005715001  0.675579585053558  1.0000
  Cl  Cl1591    1.0  0.7096398671275903  0.7216342637955598  0.7309944833638925  1.0000
  Cl  Cl1592    1.0  0.7697441796153003  0.6413993796892753  0.7014685422470843  1.0000
  Cl  Cl1593    1.0  0.803800326403462  0.7240430678152434  0.6752777091849967  1.0000
  Pu  Pu286     1.0  0.8061512364209558  0.6260512661801669  0.6604175594086311  1.0000
  Na  Na738     1.0  0.7685201349975727  0.6909132250621189  0.7265531863387592  1.0000
  Cl  Cl1594    1.0  0.8426244578005423  0.6558935566660838  0.7039166314825396  1.0000
  Na  Na739     1.0  0.06958879739645728  0.6953545220872522  0.6803372314478  1.0000
  Cl  Cl1595    1.0  0.9674377235929884  0.6887463352658713  0.7198147380124512  1.0000
  Cl  Cl1596    1.0  0.05999927622659418  0.7486852363187533  0.7049483853072794  1.0000
  Pu  Pu287     1.0  0.03946282629981025  0.8072739665348512  0.7066355819425257  1.0000
  Cl  Cl1597    1.0  0.007910346989206066  0.7847635378976879  0.7546772655453997  1.0000
  Cl  Cl1598    1.0  0.9857384312137777  0.8261536141775385  0.6972939711606112  1.0000
  Cl  Cl1599    1.0  0.11081160136283806  0.8112231645413711  0.6980114432591779  1.0000
  Na  Na740     1.0  0.15485260265010187  0.7913014248592668  0.7689543400139963  1.0000
  Na  Na741     1.0  0.24696340748416037  0.7332771611645197  0.8044454309992913  1.0000
  Cl  Cl1600    1.0  0.15112319508760977  0.7359237441217686  0.7743219410741669  1.0000
  Cl  Cl1601    1.0  0.24177775900230075  0.7243635524702227  0.7499857837250888  1.0000
  Cl  Cl1602    1.0  0.27763275514421754  0.7885307833258969  0.6750998918925566  1.0000
  Na  Na742     1.0  0.36527807153079905  0.7167463558963908  0.7638638031071628  1.0000
  Na  Na743     1.0  0.3407723674610224  0.7767266098079797  0.6853884831388617  1.0000
  Na  Na744     1.0  0.41233142181057536  0.7610931615737929  0.7234000308623493  1.0000
  Cl  Cl1603    1.0  0.40056033057962376  0.8085951903705404  0.6753045885431563  1.0000
  Cl  Cl1604    1.0  0.5606641259926358  0.7728353058036497  0.7202716871011637  1.0000
  Cl  Cl1605    1.0  0.5020857339912147  0.7781160658605354  0.6877435284422262  1.0000
  Pu  Pu288     1.0  0.5138051341487825  0.7485673806714382  0.7324790509914744  1.0000
  Cl  Cl1606    1.0  0.5931447288640602  0.8158981052181989  0.7750497513874102  1.0000
  Na  Na745     1.0  0.672726237802774  0.7767658950237514  0.7126793022425559  1.0000
  Cl  Cl1607    1.0  0.6453816599827608  0.816446030596067  0.6922489223983554  1.0000
  Cl  Cl1608    1.0  0.7226350029762696  0.8057377078338855  0.6943351741201244  1.0000
  Na  Na746     1.0  0.7158882840782201  0.7633551629450666  0.6016117266843214  1.0000
  Na  Na747     1.0  0.6893314782165756  0.8568622470533673  0.6807693688212882  1.0000
  Cl  Cl1609    1.0  0.7925730252645076  0.8190595312663502  0.7643683079833884  1.0000
  Na  Na748     1.0  0.7585561636921175  0.7666509857840156  0.6727221025169032  1.0000
  Cl  Cl1610    1.0  0.848004464718325  0.7887520211199794  0.697304309375288  1.0000
  Na  Na749     1.0  0.8947704126300875  0.7609008707808054  0.6791028486153955  1.0000
  Cl  Cl1611    1.0  0.9477186129185488  0.7711625826689509  0.6813793234872167  1.0000
  Na  Na750     1.0  0.9600789823860753  0.8150172893277396  0.7497852223603598  1.0000
  Na  Na751     1.0  0.961710352662067  0.9609804747058881  0.7363620844240629  1.0000
  Cl  Cl1612    1.0  0.9788097597374174  0.8376889941138603  0.7973017246576546  1.0000
  Cl  Cl1613    1.0  0.04635055844605056  0.8525987673206743  0.6826405856777806  1.0000
  Cl  Cl1614    1.0  0.1323291478624459  0.9004750394887202  0.7176333747156561  1.0000
  Na  Na752     1.0  0.049719989373498086  0.9081666712082248  0.7505109650306679  1.0000
  Pu  Pu289     1.0  0.13556128729898614  0.840788390873951  0.6613583369442158  1.0000
  Na  Na753     1.0  0.22904107852054034  0.8516683279997664  0.7136304179928172  1.0000
  Cl  Cl1615    1.0  0.18266674218073325  0.8471050400414474  0.6849666839800501  1.0000
  Cl  Cl1616    1.0  0.24093209304174232  0.8082809086443671  0.7491359824786598  1.0000
  Cl  Cl1617    1.0  0.27769685207521344  0.8608093774169518  0.6619993062541745  1.0000
  Na  Na754     1.0  0.29619398577486095  0.8162785515183036  0.768716561076431  1.0000
  Pu  Pu290     1.0  0.38717441021616317  0.831550162238804  0.7691342249493718  1.0000
  Cl  Cl1618    1.0  0.35823154440712385  0.7980543466861223  0.7329504735807343  1.0000
  Cl  Cl1619    1.0  0.3849454911318551  0.884237839517411  0.7349643577997659  1.0000
  Cl  Cl1620    1.0  0.4280144934752106  0.8206660898271178  0.7308352748578705  1.0000
  Na  Na755     1.0  0.47771649435517105  0.8279297194590048  0.761140717361306  1.0000
  Cl  Cl1621    1.0  0.5062416962912696  0.7875362470739933  0.7792201871880127  1.0000
  Cl  Cl1622    1.0  0.5339398410532278  0.9342003634072257  0.7033604355329302  1.0000
  Na  Na756     1.0  0.6078456701344038  0.8366923902190212  0.7235406305819532  1.0000
  Cl  Cl1623    1.0  0.6450012136826562  0.8965299767680709  0.6863127195309635  1.0000
  Cl  Cl1624    1.0  0.7184480260321844  0.8658172086063715  0.7417731059858759  1.0000
  Pu  Pu291     1.0  0.7765446572296689  0.8547863335462752  0.717898033011381  1.0000
  Cl  Cl1625    1.0  0.8293233107974313  0.8598748028101735  0.7100079075700827  1.0000
  Na  Na757     1.0  0.9084003148599195  0.8907302383344122  0.7164258712414113  1.0000
  Cl  Cl1626    1.0  0.9224747603208517  0.8282377982563721  0.6340902619128105  1.0000
  Cl  Cl1627    1.0  0.04121019134447514  0.9226980657578696  0.6820637132988178  1.0000
  Cl  Cl1628    1.0  0.17610280291816885  0.9826307638819455  0.6883224684641244  1.0000
  Na  Na758     1.0  0.12342153533266148  0.9381785084148404  0.6721121478509748  1.0000
  Cl  Cl1629    1.0  0.19937143621972522  0.9088489933768906  0.768515999711702  1.0000
  Cl  Cl1630    1.0  0.24183565300449056  0.012094449909611131  0.7369203480166077  1.0000
  Na  Na759     1.0  0.22893976401670815  0.9329101542155669  0.7263381514734827  1.0000
  Cl  Cl1631    1.0  0.3147448781908276  0.8605757337652573  0.7366991102225251  1.0000
  Cl  Cl1632    1.0  0.30098884974193924  0.9371364163754237  0.7083868755087677  1.0000
  Na  Na760     1.0  0.3697834654869283  0.9327509457095449  0.6918850172417337  1.0000
  Cl  Cl1633    1.0  0.41325772584561243  0.9608626190585732  0.7188491487616423  1.0000
  Na  Na761     1.0  0.421443524226666  0.9141773092212894  0.7673312403097461  1.0000
  Cl  Cl1634    1.0  0.4926055911326316  0.9425763849383315  0.7486624922464644  1.0000
  Pu  Pu292     1.0  0.5884346382573312  0.9262151263909011  0.6775148988410462  1.0000
  Cl  Cl1635    1.0  0.6004124937818179  0.8847092621066709  0.754007349234346  1.0000
  Cl  Cl1636    1.0  0.6098698925681122  0.9451774797510026  0.7249941835655047  1.0000
  Na  Na762     1.0  0.7296132978830783  0.9185565769583621  0.7215246787199863  1.0000
  Na  Na763     1.0  0.6692774093866091  0.9721085289839457  0.7228479701986107  1.0000
  Cl  Cl1637    1.0  0.7438572900647094  0.9699230304012799  0.7060463037059507  1.0000
  Cl  Cl1638    1.0  0.7989103508613575  0.9156887562070307  0.685766861796031  1.0000
  Na  Na764     1.0  0.8143349671590739  0.9403826157839242  0.7381940160647836  1.0000
  Cl  Cl1639    1.0  0.899147612724225  0.9854096759870569  0.7154085909172189  1.0000
  Pu  Pu293     1.0  0.8959427661744314  0.9582077655295829  0.7612048142923019  1.0000
  Cl  Cl1640    1.0  0.9726440485042016  0.9700739683355606  0.6799960703634671  1.0000
  Cl  Cl1641    1.0  0.9361625565528735  0.9196731041434516  0.753447017998866  1.0000
  Na  Na765     1.0  0.017742795527543515  0.061699292248039536  0.852379597169527  1.0000
  Cl  Cl1642    1.0  0.08098461143464275  0.027464707874557112  0.7752110275363676  1.0000
  Na  Na766     1.0  0.11223517352382702  0.9661185674002347  0.82235948939117  1.0000
  Cl  Cl1643    1.0  0.1947969829895553  0.04848043743375534  0.7855016864256081  1.0000
  Na  Na767     1.0  0.24186046471971478  0.07087962688099672  0.753523520787474  1.0000
  Cl  Cl1644    1.0  0.2904976294879697  0.03947378480736761  0.7870214039830908  1.0000
  Na  Na768     1.0  0.4263334997687704  0.06136516114968686  0.8215262292882237  1.0000
  Cl  Cl1645    1.0  0.37733863277269986  0.0609851283781694  0.7935551556587992  1.0000
  Cl  Cl1646    1.0  0.4462076836633615  0.9992145582752195  0.7800782590061832  1.0000
  Na  Na769     1.0  0.5840925880930947  0.037771494378693364  0.78510056369615  1.0000
  Cl  Cl1647    1.0  0.5405273514452551  0.07895894165087965  0.8107352008086283  1.0000
  Na  Na770     1.0  0.7411631513199473  0.11643910513998211  0.81917531927073  1.0000
  Na  Na771     1.0  0.7390810348840492  0.07621766064719167  0.7664628302768988  1.0000
  Cl  Cl1648    1.0  0.6840962063042676  0.08008435970059104  0.7846415469645022  1.0000
  Cl  Cl1649    1.0  0.7290653725052103  0.01843014206854215  0.8163860689509418  1.0000
  Cl  Cl1650    1.0  0.8084607935797425  0.07266689743431388  0.7981970140486615  1.0000
  Na  Na772     1.0  0.8737445516205061  0.07244483258305721  0.7944256333345818  1.0000
  Cl  Cl1651    1.0  0.8653209743018873  0.029664473193476742  0.848417993305395  1.0000
  Cl  Cl1652    1.0  0.007230071787046328  0.06691161332376516  0.7948929206379711  1.0000
  Na  Na773     1.0  0.9216063502880044  0.029512914966315532  0.8473965776953318  1.0000
  Na  Na774     1.0  0.01868617829322663  0.04934677982366729  0.7410349574579556  1.0000
  Pu  Pu294     1.0  0.017385816974755212  0.16771995816537644  0.7847656055406232  1.0000
  Cl  Cl1653    1.0  0.051730978892420204  0.11265614562546443  0.7284760942686354  1.0000
  Na  Na775     1.0  0.06341605617726125  0.08204572578906473  0.791208380927176  1.0000
  Na  Na776     1.0  0.1478447404493177  0.0632413403492241  0.8086158667998938  1.0000
  Na  Na777     1.0  0.3702197381462873  0.11328181437770156  0.784145312660018  1.0000
  Cl  Cl1654    1.0  0.41604904380833596  0.16459554292576797  0.7790423698955724  1.0000
  Pu  Pu295     1.0  0.44678042075645363  0.1470679269985064  0.8255271183681273  1.0000
  Cl  Cl1655    1.0  0.47580805992584235  0.20562667639204174  0.8169877530451288  1.0000
  Cl  Cl1656    1.0  0.4676842908328494  0.10234274266393505  0.8083284644318801  1.0000
  Cl  Cl1657    1.0  0.5597088749565038  0.14739047929642113  0.7917335622327553  1.0000
  Na  Na778     1.0  0.5379386624901961  0.19167732332869813  0.7754632799744804  1.0000
  Pu  Pu296     1.0  0.5340370202711893  0.10865008743822242  0.7608409091356801  1.0000
  Cl  Cl1658    1.0  0.5877109632299585  0.08092713096104  0.7520761707327285  1.0000
  Na  Na779     1.0  0.6051081108879994  0.19379169499438778  0.7656523142462413  1.0000
  Cl  Cl1659    1.0  0.6472384033387056  0.14853326554678947  0.7493117321281645  1.0000
  Na  Na780     1.0  0.6902246999646471  0.1609341608158489  0.782788938894428  1.0000
  Na  Na781     1.0  0.7383883745007066  0.1763052251615397  0.7382973982115513  1.0000
  Cl  Cl1660    1.0  0.7318815021831581  0.13763306552020757  0.7695642946799248  1.0000
  Na  Na782     1.0  0.8155755529202843  0.10657107246672727  0.750835584971518  1.0000
  Cl  Cl1661    1.0  0.8090293953869641  0.15284057930971207  0.7717808079066207  1.0000
  Cl  Cl1662    1.0  0.9270649276373303  0.1049771265278654  0.6983443337717694  1.0000
  Cl  Cl1663    1.0  0.8649818808604898  0.13433041945957186  0.8206061281819926  1.0000
  Cl  Cl1664    1.0  0.8966643735588687  0.16660860008762543  0.7654041970939992  1.0000
  Cl  Cl1665    1.0  0.9751458964559758  0.13913210664833683  0.7757568852713003  1.0000
  Na  Na783     1.0  0.018680574980871834  0.24791865852029238  0.8136857272773736  1.0000
  Cl  Cl1666    1.0  0.05861995162442171  0.19266234842309923  0.8209741686244851  1.0000
  Cl  Cl1667    1.0  0.9960580371041131  0.2152395619270743  0.7734783427565438  1.0000
  Cl  Cl1668    1.0  0.17531854595279034  0.17979065085766038  0.807714374480081  1.0000
  Cl  Cl1669    1.0  0.13421607880524694  0.21577508144733015  0.7715368260402493  1.0000
  Na  Na784     1.0  0.09133709284765025  0.28347384643658335  0.7647446189976222  1.0000
  Cl  Cl1670    1.0  0.22206691889960237  0.22077464206500816  0.7622303651882358  1.0000
  Na  Na785     1.0  0.27841639181671546  0.22354528359837814  0.7514951630678949  1.0000
  Cl  Cl1671    1.0  0.27453542602706216  0.17355898181480686  0.7643869167698066  1.0000
  Na  Na786     1.0  0.31997394717432953  0.15201021390687525  0.7500436777272788  1.0000
  Cl  Cl1672    1.0  0.3468140201181172  0.16511824305982464  0.7983686284122956  1.0000
  Cl  Cl1673    1.0  0.39414029926535976  0.23342241390054852  0.8203249287427848  1.0000
  Na  Na787     1.0  0.3596561503895805  0.21516305913846634  0.7762303755034956  1.0000
  Cl  Cl1674    1.0  0.5344753605734835  0.2533131389386224  0.8144383493058414  1.0000
  Na  Na788     1.0  0.5893030482901787  0.27335686955391225  0.799090235796733  1.0000
  Na  Na789     1.0  0.6899993268846938  0.24514801698692243  0.7295884861678541  1.0000
  Cl  Cl1675    1.0  0.6553869841469229  0.2294835541087054  0.7850137226928654  1.0000
  Cl  Cl1676    1.0  0.7534801002858316  0.22634280448990765  0.7401231269234659  1.0000
  Pu  Pu297     1.0  0.8528406815441103  0.18196333005412693  0.7889174325548075  1.0000
  Cl  Cl1677    1.0  0.8226200124010242  0.22333438401897235  0.7645171782747336  1.0000
  Na  Na790     1.0  0.9416810955473246  0.18180267419805018  0.7258501877407401  1.0000
  Na  Na791     1.0  0.8683128536293397  0.2486898893351782  0.8065875090803147  1.0000
  Na  Na792     1.0  0.9643920855492168  0.26790449513339243  0.7794496955538366  1.0000
  Cl  Cl1678    1.0  0.9629509384232774  0.2430927799091838  0.8430938127468669  1.0000
  Cl  Cl1679    1.0  0.007277462163124565  0.3032136335403766  0.8115870696979929  1.0000
  Cl  Cl1680    1.0  0.06332115136652863  0.3503951776821446  0.7971383808657619  1.0000
  Cl  Cl1681    1.0  0.34745498942807596  0.2913288219479807  0.7333991520977055  1.0000
  Cl  Cl1682    1.0  0.3522725974674431  0.31792284538246157  0.8035914944669915  1.0000
  Pu  Pu298     1.0  0.35281225227356966  0.3437270292156385  0.7583576699703239  1.0000
  Na  Na793     1.0  0.5153786104225844  0.308103609082481  0.7877492142963344  1.0000
  Cl  Cl1683    1.0  0.40758204598807474  0.3331262238860954  0.7761021816415038  1.0000
  Cl  Cl1684    1.0  0.5580650988229  0.29876406594350186  0.7606589565573693  1.0000
  Na  Na794     1.0  0.6049861199548138  0.2921930966949573  0.7285153794844069  1.0000
  Cl  Cl1685    1.0  0.6728172140919294  0.2875863882349959  0.8628108557783715  1.0000
  Cl  Cl1686    1.0  0.6472466739104471  0.3108804535446571  0.7729159438781283  1.0000
  Cl  Cl1687    1.0  0.7194032770683164  0.2956233163247041  0.7198540232282228  1.0000
  Cl  Cl1688    1.0  0.8302785618335633  0.28655463441025586  0.800858070506458  1.0000
  Cl  Cl1689    1.0  0.7832148733391103  0.35266131433928904  0.8091493186772142  1.0000
  Na  Na795     1.0  0.7812237331923675  0.29838775492926806  0.7559695423799939  1.0000
  Cl  Cl1690    1.0  0.9336193557423921  0.24115746612169553  0.7403753793615787  1.0000
  Cl  Cl1691    1.0  0.9080674243473279  0.2774321937794885  0.8186811526091812  1.0000
  Cl  Cl1692    1.0  0.0017746455255539084  0.373796760424444  0.735642544682561  1.0000
  Na  Na796     1.0  0.061673653475641195  0.509982062361319  0.9011263470133555  1.0000
  Cl  Cl1693    1.0  0.05848948335520109  0.4401164075758183  0.8845727976729377  1.0000
  Cl  Cl1694    1.0  0.1292783407113359  0.33803894350048874  0.7927715189863013  1.0000
  Cl  Cl1695    1.0  0.08814961449851358  0.32416092411841474  0.7296319066694964  1.0000
  Cl  Cl1696    1.0  0.16159518626228056  0.4114485382771806  0.7305044519882145  1.0000
  Cl  Cl1697    1.0  0.19561742370630245  0.3884191312632443  0.7812175302635614  1.0000
  Pu  Pu299     1.0  0.1676688873848733  0.35010157238532486  0.7564223561828356  1.0000
  Cl  Cl1698    1.0  0.33568183055418893  0.39559591989184667  0.7861426557355669  1.0000
  Na  Na797     1.0  0.36420496484735204  0.4138842216550237  0.7271259234318513  1.0000
  Na  Na798     1.0  0.2733630724827183  0.3831156271340697  0.8024687643530961  1.0000
  Cl  Cl1699    1.0  0.44254175273898466  0.41596633809092187  0.7430447063911164  1.0000
  Cl  Cl1700    1.0  0.45785885160406276  0.4425066028090837  0.8225000891107739  1.0000
  Pu  Pu300     1.0  0.4478307833676118  0.39445871627740375  0.795205134721209  1.0000
  Cl  Cl1701    1.0  0.3947171716443226  0.3992928654602537  0.80602924548777  1.0000
  Cl  Cl1702    1.0  0.5207627526262376  0.36334896067211686  0.8131088548984109  1.0000
  Cl  Cl1703    1.0  0.6430617646092972  0.3859524332413709  0.7481207697974025  1.0000
  Cl  Cl1704    1.0  0.7137482736401322  0.35526654443783096  0.7517701595782966  1.0000
  Pu  Pu301     1.0  0.6909421720632137  0.4036390509103609  0.7703541342812287  1.0000
  Na  Na799     1.0  0.7341724505555266  0.3727774124573161  0.7104669243017305  1.0000
  Cl  Cl1705    1.0  0.748087687510437  0.2861266323226383  0.7954987400180289  1.0000
  Cl  Cl1706    1.0  0.8629783348561348  0.3753619661265045  0.7536992704369788  1.0000
  Cl  Cl1707    1.0  0.7850922931244086  0.3485921930425188  0.730372122840352  1.0000
  Na  Na800     1.0  0.013380916667556994  0.33131910396059894  0.7657288170348493  1.0000
  Cl  Cl1708    1.0  0.002335692165489584  0.43560274304794766  0.8261039907470901  1.0000
  Cl  Cl1709    1.0  0.0878390545296239  0.43342137975115264  0.8015321221033823  1.0000
  Pu  Pu302     1.0  0.041114045947981334  0.46488676994131983  0.7972004101538225  1.0000
  Cl  Cl1710    1.0  0.22400843561589667  0.5012876238181693  0.7609670353547365  1.0000
  Pu  Pu303     1.0  0.20039347212266906  0.43988689920999435  0.7573693366472264  1.0000
  Cl  Cl1711    1.0  0.24450498003402835  0.43091126122763684  0.7923352463269423  1.0000
  Na  Na801     1.0  0.29268519571357077  0.4378047827740962  0.764860407002002  1.0000
  Cl  Cl1712    1.0  0.48258165818205134  0.47346542048009005  0.731403876665092  1.0000
  Pu  Pu304     1.0  0.44309588104565867  0.47520017290284927  0.776916832958032  1.0000
  Cl  Cl1713    1.0  0.3839571578087575  0.46178737318122914  0.7559840158805413  1.0000
  Cl  Cl1714    1.0  0.6327711057200567  0.4048982454579895  0.8197749357219816  1.0000
  Pu  Pu305     1.0  0.5680683553441267  0.3951699854471644  0.808322261503074  1.0000
  Cl  Cl1715    1.0  0.580426657168718  0.4575900580224672  0.7833720142021969  1.0000
  Na  Na802     1.0  0.5784086376638157  0.46395219533454135  0.8488873482517196  1.0000
  Cl  Cl1716    1.0  0.6993946963829275  0.451657990440946  0.7933153090782985  1.0000
  Cl  Cl1717    1.0  0.7511953548422691  0.39462619535516713  0.7880924430236025  1.0000
  Cl  Cl1718    1.0  0.8529895518354554  0.38238368153495556  0.8368991545125563  1.0000
  Cl  Cl1719    1.0  0.8746398410115128  0.4325963902199477  0.7825614981715394  1.0000
  Pu  Pu306     1.0  0.8084566582938718  0.38770992973641905  0.7721323072056304  1.0000
  Cl  Cl1720    1.0  0.9310802902177814  0.3843417393947327  0.7568482906275179  1.0000
  Na  Na803     1.0  0.9243004890327664  0.33783217920695363  0.7848958670455504  1.0000
  Cl  Cl1721    1.0  0.9977886542410016  0.5085161035201554  0.7837896780751378  1.0000
  Na  Na804     1.0  0.04246297619900414  0.5583400953333015  0.7362669728490369  1.0000
  Cl  Cl1722    1.0  0.06941408156842013  0.5068909361729697  0.771840769551746  1.0000
  Na  Na805     1.0  0.20968173771685156  0.5456364971385068  0.7164093300979286  1.0000
  Cl  Cl1723    1.0  0.1565670921720947  0.5757124312761184  0.719111739414432  1.0000
  Cl  Cl1724    1.0  0.31143251420839574  0.5029520763811266  0.7560915333131795  1.0000
  Pu  Pu307     1.0  0.3734659375547879  0.5190445413469612  0.7572576839287174  1.0000
  Cl  Cl1725    1.0  0.3629437026567881  0.5564275256181022  0.7946013829840867  1.0000
  Cl  Cl1726    1.0  0.4744227391591574  0.5013703295355832  0.8146389106705705  1.0000
  Pu  Pu308     1.0  0.48497598870118747  0.5815741989978377  0.8109440327450987  1.0000
  Na  Na806     1.0  0.5367208208012745  0.4857534224448793  0.8071829902456958  1.0000
  Cl  Cl1727    1.0  0.530391765776166  0.6171211163423871  0.8145003785939019  1.0000
  Cl  Cl1728    1.0  0.5239551933184191  0.5421111659337339  0.8000310133323176  1.0000
  Cl  Cl1729    1.0  0.6286854432798037  0.4581462539720766  0.7364365195697355  1.0000
  Cl  Cl1730    1.0  0.6598965133889229  0.5263226444793958  0.7201310873815598  1.0000
  Na  Na807     1.0  0.6306765834265464  0.4682094721384285  0.9093369571096332  1.0000
  Pu  Pu309     1.0  0.7083744696511557  0.5376099072634754  0.7618044307435535  1.0000
  Cl  Cl1731    1.0  0.7327499122160053  0.4886150402674047  0.7384545390746379  1.0000
  Na  Na808     1.0  0.7591040890699856  0.44245284409276464  0.7613516169407119  1.0000
  Cl  Cl1732    1.0  0.7977669443181086  0.5038887186308405  0.7627514112079441  1.0000
  Cl  Cl1733    1.0  0.8773257091845335  0.5172022714915637  0.7758168469164254  1.0000
  Na  Na809     1.0  0.893918543740723  0.4737445522763623  0.8055144023968678  1.0000
  Na  Na810     1.0  0.9521495717290052  0.4622029694112346  0.8555389555747429  1.0000
  Pu  Pu310     1.0  0.9461079190719105  0.5223403641859102  0.7592943122200378  1.0000
  Cl  Cl1734    1.0  0.9325731284171047  0.46265371557114116  0.7518756093679995  1.0000
  Cl  Cl1735    1.0  0.06143856247389181  0.5861023370262557  0.7850219932646068  1.0000
  Na  Na811     1.0  0.9934982951501489  0.5998252831881784  0.7950645350016052  1.0000
  Cl  Cl1736    1.0  0.15601110298677887  0.6102978946557298  0.8486288928848009  1.0000
  Cl  Cl1737    1.0  0.23911463490156903  0.6022444254225386  0.7836924988571763  1.0000
  Na  Na812     1.0  0.20209245432264678  0.6609034554984385  0.805344855676169  1.0000
  Cl  Cl1738    1.0  0.19823030408370518  0.648909058830469  0.7551672969210778  1.0000
  Na  Na813     1.0  0.2530422777140915  0.658170031537905  0.7465390229518593  1.0000
  Cl  Cl1739    1.0  0.30224184136076176  0.6122580201584422  0.8388406712288505  1.0000
  Na  Na814     1.0  0.34175243021237867  0.6226169112645493  0.7667440297161064  1.0000
  Cl  Cl1740    1.0  0.3896183641657477  0.6588626919212475  0.7696201210391792  1.0000
  Cl  Cl1741    1.0  0.43005732469533703  0.5940296800403904  0.7913737923620042  1.0000
  Pu  Pu311     1.0  0.4252852048005476  0.6454622980572394  0.8108778681711675  1.0000
  Na  Na815     1.0  0.5645244153529356  0.6059372357050752  0.7647384160688162  1.0000
  Cl  Cl1742    1.0  0.6228712313455975  0.6372744320332506  0.794632397628117  1.0000
  Na  Na816     1.0  0.6428053768853137  0.5892430866450534  0.8046273835776022  1.0000
  Cl  Cl1743    1.0  0.6741735878575195  0.5808174416834992  0.7602929837578122  1.0000
  Na  Na817     1.0  0.7604067041192565  0.5997032922549927  0.7512284371292346  1.0000
  Cl  Cl1744    1.0  0.7501036393724038  0.5631721768732162  0.7916405183006645  1.0000
  Cl  Cl1745    1.0  0.8107269302368869  0.6027220509406048  0.7632559160841698  1.0000
  Cl  Cl1746    1.0  0.9128250707415699  0.5454710857036787  0.7185865581088529  1.0000
  Na  Na818     1.0  0.826910371491877  0.5372625432503364  0.7933525266511349  1.0000
  Cl  Cl1747    1.0  0.9197599451467362  0.6369063915907581  0.7535566030744395  1.0000
  Cl  Cl1748    1.0  0.9394769881782407  0.5018438197677786  0.816929859042939  1.0000
  Na  Na819     1.0  0.04824700054635424  0.7246137372654002  0.7592819063624257  1.0000
  Cl  Cl1749    1.0  0.01625913766285325  0.6553228872159269  0.7747788901628794  1.0000
  Cl  Cl1750    1.0  0.07710819445944722  0.6817494315726444  0.7970742839347661  1.0000
  Na  Na820     1.0  0.08665057337038432  0.6789188283941494  0.8603917135440111  1.0000
  Cl  Cl1751    1.0  0.11280170768811311  0.7359733675522171  0.8591966159273784  1.0000
  Cl  Cl1752    1.0  0.12280599803080756  0.6246183896259688  0.7770450268200237  1.0000
  Cl  Cl1753    1.0  0.1886629066932503  0.7074957214036317  0.8295404133056431  1.0000
  Cl  Cl1754    1.0  0.3604232459185956  0.7098176844200305  0.8336694962475385  1.0000
  Na  Na821     1.0  0.44610016623072324  0.6943269035483829  0.7212434792807785  1.0000
  Cl  Cl1755    1.0  0.3935303445994313  0.7120073182885668  0.7198705643717057  1.0000
  Na  Na822     1.0  0.5810138677623575  0.6749220746001164  0.763045016504764  1.0000
  Cl  Cl1756    1.0  0.46331536131045337  0.6672924721686723  0.7636880534576581  1.0000
  Cl  Cl1757    1.0  0.5362204512109197  0.7076115094080113  0.7777749047762026  1.0000
  Cl  Cl1758    1.0  0.5726109668730922  0.6876814991541657  0.8394506258947791  1.0000
  Na  Na823     1.0  0.5580754370375767  0.7753888448288078  0.8008435970059105  1.0000
  Cl  Cl1759    1.0  0.6218332745920514  0.7532898771357792  0.825642906372507  1.0000
  Cl  Cl1760    1.0  0.6899889886700171  0.6735036715464658  0.7860206648023812  1.0000
  Pu  Pu312     1.0  0.7199119172304126  0.7200090964483741  0.7916798035164361  1.0000
  Cl  Cl1761    1.0  0.7608326385639387  0.6868358331936072  0.8056839491175665  1.0000
  Cl  Cl1762    1.0  0.8477584152090182  0.6592162588631924  0.8156747997811812  1.0000
  Na  Na824     1.0  0.8054420348941305  0.7321771751229131  0.8076606157637618  1.0000
  Cl  Cl1763    1.0  0.9186930413920953  0.7091560386807183  0.8115787991262513  1.0000
  Cl  Cl1764    1.0  0.8550468565561296  0.7251223774274965  0.7722212158518506  1.0000
  Na  Na825     1.0  0.8778157405602116  0.6274862103773002  0.7844182415274844  1.0000
  Pu  Pu313     1.0  0.9650578665743998  0.674518884227723  0.7764164633676771  1.0000
  Cl  Cl1765    1.0  0.960449090471503  0.6384881384363015  0.8205316930363199  1.0000
  Cl  Cl1766    1.0  0.9886910253254585  0.7252505712894882  0.7802085205111103  1.0000
  Cl  Cl1767    1.0  0.049179921038784484  0.8412060547468918  0.7551114705618234  1.0000
  Na  Na826     1.0  0.07952712992951402  0.7815710972055064  0.8501961662297968  1.0000
  Cl  Cl1768    1.0  0.1465590800721166  0.8056157169006999  0.8207591337592085  1.0000
  Pu  Pu314     1.0  0.16085414303425086  0.752415264174126  0.842303973145563  1.0000
  Cl  Cl1769    1.0  0.21528711771458736  0.7702093992757542  0.8264203401161988  1.0000
  Cl  Cl1770    1.0  0.2872969182240468  0.7562817564632318  0.8311924600109883  1.0000
  Na  Na827     1.0  0.33920095883015583  0.7772063029689811  0.8429490777413925  1.0000
  Cl  Cl1771    1.0  0.4149139078368284  0.7873191445657814  0.7839344130806123  1.0000
  Na  Na828     1.0  0.4608858808614163  0.7325555537800823  0.8163777983792003  1.0000
  Cl  Cl1772    1.0  0.46917506138923726  0.7337816660407452  0.7541272725245963  1.0000
  Cl  Cl1773    1.0  0.5614312215216509  0.8083077880025266  0.8549538126240388  1.0000
  Na  Na829     1.0  0.55900794400142  0.8495159117040663  0.816051110795415  1.0000
  Cl  Cl1774    1.0  0.7559902188093474  0.7675462751750225  0.8139214385720037  1.0000
  Cl  Cl1775    1.0  0.6824193478836981  0.7642111671203019  0.7755914738364721  1.0000
  Cl  Cl1776    1.0  0.7787177499547224  0.8462076830075053  0.8384560896428753  1.0000
  Na  Na830     1.0  0.7383036011403574  0.8025618082851869  0.7615087578037983  1.0000
  Cl  Cl1777    1.0  0.7726285415101146  0.7387398737997163  0.7481807314425277  1.0000
  Cl  Cl1778    1.0  0.838890294659299  0.7343192532039365  0.8517489660742451  1.0000
  Pu  Pu315     1.0  0.8893221734954384  0.7624805499834133  0.8037445000442076  1.0000
  Cl  Cl1779    1.0  0.859494356510069  0.8081382412818278  0.8106194128042487  1.0000
  Cl  Cl1780    1.0  0.9221335992365189  0.773757474552816  0.759083412640632  1.0000
  Pu  Pu316     1.0  0.026265268207760158  0.8046129100770547  0.801819524471396  1.0000
  Cl  Cl1781    1.0  0.06678879533340533  0.7643910520556774  0.7981908111198556  1.0000
  Cl  Cl1782    1.0  0.05910026507830369  0.8409703434522617  0.8294535723023584  1.0000
  Cl  Cl1783    1.0  0.15254759430577286  0.8500803782254172  0.7657184788201725  1.0000
  Cl  Cl1784    1.0  0.20069162623394668  0.8609706535659093  0.8395581433274172  1.0000
  Na  Na831     1.0  0.2995022144714221  0.8612952735067594  0.8483146111586276  1.0000
  Cl  Cl1785    1.0  0.27099975660761244  0.8658895761091088  0.7973844303750688  1.0000
  Na  Na832     1.0  0.2165897327638583  0.8440573343547405  0.7905095176150275  1.0000
  Cl  Cl1786    1.0  0.355632517237388  0.8739409776993643  0.8048010655841717  1.0000
  Cl  Cl1787    1.0  0.34661552639632354  0.8016747894659214  0.7947481856324965  1.0000
  Pu  Pu317     1.0  0.468194998637881  0.8792113995415732  0.8434349738311998  1.0000
  Cl  Cl1788    1.0  0.4387517632384868  0.8236765779409885  0.8480788998639975  1.0000
  Cl  Cl1789    1.0  0.434802565231967  0.8603648341858515  0.7914689039370303  1.0000
  Cl  Cl1790    1.0  0.6560362240286229  0.8614193320828805  0.7861219793062134  1.0000
  Cl  Cl1791    1.0  0.6098885013545303  0.8613717762953673  0.8259840674568397  1.0000
  Pu  Pu318     1.0  0.6355190031811379  0.8101045697133463  0.820219478953082  1.0000
  Na  Na833     1.0  0.7061744975679425  0.8660570551868721  0.8053841408919405  1.0000
  Cl  Cl1792    1.0  0.7286477086322694  0.9013785994514683  0.8378151203329166  1.0000
  Cl  Cl1793    1.0  0.7768527360270361  0.8954672082993006  0.7570261079199581  1.0000
  Na  Na834     1.0  0.785418980708194  0.9014613051688825  0.81690711497065  1.0000
  Na  Na835     1.0  0.8638839624618185  0.8293646636561383  0.7576339949429512  1.0000
  Cl  Cl1794    1.0  0.8515235929942919  0.9210501543383952  0.8254857655094203  1.0000
  Na  Na836     1.0  0.9368283375780564  0.8273073589354643  0.8211788652750848  1.0000
  Cl  Cl1795    1.0  0.9094113922553059  0.843606588194834  0.7448435557448717  1.0000
  Cl  Cl1796    1.0  0.9972221200767155  0.793017568495608  0.8528013963283386  1.0000
  Na  Na837     1.0  0.05328936137279403  0.9850912589750128  0.7808329486775862  1.0000
  Pu  Pu319     1.0  0.14533420839721484  0.90465994878987  0.7695973769668903  1.0000
  Cl  Cl1797    1.0  0.09236719255804199  0.9293372672232808  0.7763999222241942  1.0000
  Cl  Cl1798    1.0  0.14539313622087233  0.9140904682180045  0.8263789872574918  1.0000
  Cl  Cl1799    1.0  0.17184842081439122  0.9764423085764408  0.7805931020970855  1.0000
  Na  Na838     1.0  0.2348449522400698  0.9361460154093908  0.8134065954811014  1.0000
  Cl  Cl1800    1.0  0.2727924030325615  0.9377608445418997  0.7642897375518451  1.0000
  Pu  Pu320     1.0  0.319516998085617  0.903121622445969  0.778515120947058  1.0000
  Na  Na839     1.0  0.37157197662600666  0.9696563044626199  0.8079314769882928  1.0000
  Cl  Cl1801    1.0  0.3522994768256026  0.943405509755407  0.7580557941017626  1.0000
  Cl  Cl1802    1.0  0.46932186403764714  0.9343161514116053  0.8207012397570187  1.0000
  Cl  Cl1803    1.0  0.4066660801677144  0.008647130872788941  0.8416609361926689  1.0000
  Na  Na840     1.0  0.62904728079349  0.9221625462376137  0.7779609926403841  1.0000
  Cl  Cl1804    1.0  0.564090210336512  0.9835984207756896  0.7895542665788955  1.0000
  Na  Na841     1.0  0.5240358313928979  0.8975824070221644  0.7450978758259197  1.0000
  Na  Na842     1.0  0.651001513481044  0.8860056742271357  0.7354729979618622  1.0000
  Cl  Cl1805    1.0  0.6309681210804309  0.02057201338527196  0.7901497477442766  1.0000
  Na  Na843     1.0  0.709414494047637  0.9611810360706172  0.7903668502524883  1.0000
  Cl  Cl1806    1.0  0.6875016142187902  0.9266948195519026  0.7575244098673775  1.0000
  Cl  Cl1807    1.0  0.7679742772626401  0.9501646345110686  0.7762737960051379  1.0000
  Na  Na844     1.0  0.756217659532236  0.986972814046182  0.8491437359757031  1.0000
  Na  Na845     1.0  0.7816620734946618  0.014613211180596667  0.7857994270082987  1.0000
  Pu  Pu321     1.0  0.8529151166897829  0.973336708887544  0.84399530506668  1.0000
  Cl  Cl1808    1.0  0.8464764765891007  0.9725696133585289  0.7772311146842054  1.0000
  Cl  Cl1809    1.0  0.8656724736008969  0.9227642303318008  0.7354647273901208  1.0000
  Na  Na846     1.0  0.9791902060375218  0.954382626099184  0.7938342874550716  1.0000
  Cl  Cl1810    1.0  0.9119277137076277  0.9608419426292196  0.817678345785536  1.0000
  Cl  Cl1811    1.0  0.031364902743509164  0.9320107295386892  0.7924717107606755  1.0000
  Cl  Cl1812    1.0  0.005506567341855383  0.0010474761816204148  0.8231348554919264  1.0000
  Cl  Cl1813    1.0  0.1519928457062183  0.9914720050735052  0.8767984602360192  1.0000
  Na  Na847     1.0  0.12771334177356894  0.08208749217635881  0.8814816714845883  1.0000
  Cl  Cl1814    1.0  0.2108210089742298  0.04157740472979343  0.860892083134366  1.0000
  Pu  Pu322     1.0  0.21110634369930822  0.9897682672947762  0.8773649944003052  1.0000
  Cl  Cl1815    1.0  0.20755826842224637  0.9872271341272301  0.9279540140995312  1.0000
  Pu  Pu323     1.0  0.28332497614523805  0.027505440440383517  0.8387124773668588  1.0000
  Cl  Cl1816    1.0  0.3173583788611109  0.986772252681453  0.8437678643437914  1.0000
  Cl  Cl1817    1.0  0.2715786966295107  0.004907881329924583  0.8907571176925718  1.0000
  Na  Na848     1.0  0.3545573429110056  0.011418082552599206  0.8756116331911278  1.0000
  Cl  Cl1818    1.0  0.4554831298713448  0.9668050248547712  0.9191872080536442  1.0000
  Cl  Cl1819    1.0  0.4327907486558707  0.05879921626691663  0.8843122746630836  1.0000
  Pu  Pu324     1.0  0.4725970104472427  0.02606718801455356  0.905261632884057  1.0000
  Cl  Cl1820    1.0  0.48576582830249143  0.01925932891490585  0.8522534709504708  1.0000
  Cl  Cl1821    1.0  0.5902314199681511  0.025446895133948346  0.8630755140740963  1.0000
  Na  Na849     1.0  0.5358606813401686  0.05194125817894537  0.8696071981068692  1.0000
  Cl  Cl1822    1.0  0.651756203152447  0.017155667639621324  0.8676098550313205  1.0000
  Pu  Pu325     1.0  0.6185105723949428  0.05858873021609792  0.8961309216815482  1.0000
  Pu  Pu326     1.0  0.677136520183877  0.0369357531042246  0.8184392383857451  1.0000
  Cl  Cl1823    1.0  0.7171598844834609  0.07181068649478514  0.8581545238879615  1.0000
  Na  Na850     1.0  0.9012896908052483  0.9967031416999425  0.9412241464586121  1.0000
  Cl  Cl1824    1.0  0.9203988468137596  0.09098559354864064  0.8473779689089136  1.0000
  Cl  Cl1825    1.0  0.9314400600885324  0.06835730926416238  0.9374114128858254  1.0000
  Na  Na851     1.0  0.9890321864097913  0.11759801900524618  0.8273631852947188  1.0000
  Cl  Cl1826    1.0  0.0480604991535856  0.12917557885744899  0.821321532637624  1.0000
  Na  Na852     1.0  0.06732493514654177  0.1472920594926984  0.8630465670730014  1.0000
  Cl  Cl1827    1.0  0.07846312087498254  0.08035439386794785  0.8715673236095818  1.0000
  Na  Na853     1.0  0.2115136693575723  0.1008898099732641  0.8800798095744207  1.0000
  Cl  Cl1828    1.0  0.16543231802170444  0.09991243515772381  0.848676448672314  1.0000
  Na  Na854     1.0  0.15370568111386282  0.13135714891853753  0.8073649428240067  1.0000
  Cl  Cl1829    1.0  0.23608347035834487  0.12376269641699433  0.8218880668019101  1.0000
  Na  Na855     1.0  0.37359413141677966  0.09498296763555417  0.8830365389719722  1.0000
  Cl  Cl1830    1.0  0.23000460012841378  0.18540099319844103  0.852284485594501  1.0000
  Cl  Cl1831    1.0  0.30614141593683325  0.07025168372153072  0.8716210823259007  1.0000
  Cl  Cl1832    1.0  0.33489819388169095  0.13038556350321623  0.8651596981529298  1.0000
  Cl  Cl1833    1.0  0.3692189989655775  0.19376833062921833  0.8747494260870865  1.0000
  Cl  Cl1834    1.0  0.40217515971213263  0.1106821669150851  0.8373354271719153  1.0000
  Cl  Cl1835    1.0  0.4677028996192676  0.14266550166055766  0.8773381150421456  1.0000
  Na  Na856     1.0  0.5932543139396338  0.10688101214273635  0.8217433317964355  1.0000
  Cl  Cl1836    1.0  0.5808174416834992  0.09845826188129167  0.8830530801154549  1.0000
  Cl  Cl1837    1.0  0.6555523955817509  0.12171986519686784  0.9208123754008297  1.0000
  Cl  Cl1838    1.0  0.6402414996454788  0.0801236449163627  0.841065455027288  1.0000
  Cl  Cl1839    1.0  0.7055314606150485  0.1478013199476753  0.852379597169527  1.0000
  Na  Na857     1.0  0.686964027055599  0.1037667283535111  0.8774869853334908  1.0000
  Cl  Cl1840    1.0  0.7698165471180376  0.14349317912757856  0.8581524562450263  1.0000
  Cl  Cl1841    1.0  0.8155486735621247  0.08021214003399572  0.8810288576817467  1.0000
  Na  Na858     1.0  0.7732509020336551  0.12706844394203307  0.9048026161524092  1.0000
  Cl  Cl1842    1.0  0.8731594086698018  0.1040297325348877  0.932982521718304  1.0000
  Na  Na859     1.0  0.8181104831590243  0.11757734257589267  0.8345523797809331  1.0000
  Cl  Cl1843    1.0  0.907554648899361  0.15496404860431726  0.8753097573225666  1.0000
  Pu  Pu327     1.0  0.9217945057951213  0.10783378200734595  0.899513585523782  1.0000
  Cl  Cl1844    1.0  0.9758985184844435  0.10305918094103407  0.8763849316489489  1.0000
  Cl  Cl1845    1.0  0.07758726732756799  0.27360705434908966  0.8134376101251316  1.0000
  Cl  Cl1846    1.0  0.05204236591848401  0.2751247042636371  0.8820337321483271  1.0000
  Cl  Cl1847    1.0  0.9905332951808559  0.17049039293445287  0.8371927598093761  1.0000
  Cl  Cl1848    1.0  0.14909276972509536  0.2701499553611833  0.8364876935684215  1.0000
  Cl  Cl1849    1.0  0.22021844611539884  0.25517608522337343  0.8236083457241218  1.0000
  Pu  Pu328     1.0  0.17598019169210258  0.24791865852029238  0.7851067666249562  1.0000
  Pu  Pu329     1.0  0.22793695719306303  0.17287976111054415  0.8004031890606808  1.0000
  Cl  Cl1850    1.0  0.3022956000770809  0.23150364125654305  0.8167003506771151  1.0000
  Cl  Cl1851    1.0  0.2936280408920907  0.1900796556325526  0.8882387285973147  1.0000
  Pu  Pu330     1.0  0.32650149592123173  0.18338504133647407  0.8457362604182451  1.0000
  Cl  Cl1852    1.0  0.45081232448038755  0.21118077884498082  0.8969517759268825  1.0000
  Pu  Pu331     1.0  0.49192740424983655  0.24592958601648499  0.8481078468650924  1.0000
  Cl  Cl1853    1.0  0.47634357944609823  0.2870736127870289  0.8116842489159544  1.0000
  Cl  Cl1854    1.0  0.5136976167161442  0.2040056443307268  0.8895351407177795  1.0000
  Cl  Cl1855    1.0  0.503272561036106  0.2906713114945392  0.8781176164287727  1.0000
  Na  Na860     1.0  0.615952898083914  0.15558124002051946  0.8919460123803984  1.0000
  Pu  Pu332     1.0  0.6526060043988762  0.2296675743299516  0.8447024389505698  1.0000
  Cl  Cl1856    1.0  0.6283339439807941  0.22914446066730787  0.9043994257800158  1.0000
  Cl  Cl1857    1.0  0.6315367228876524  0.1705255428643538  0.8378812849068478  1.0000
  Cl  Cl1858    1.0  0.7051551496008147  0.20934677956132478  0.8242472473911452  1.0000
  Pu  Pu333     1.0  0.7431274121085306  0.18986048548140547  0.8705748550006134  1.0000
  Cl  Cl1859    1.0  0.8303654028368479  0.14978501657985077  0.8940488052456501  1.0000
  Cl  Cl1860    1.0  0.7478395703581948  0.255486231663676  0.8672252734453453  1.0000
  Cl  Cl1861    1.0  0.8209266128369719  0.196569780042325  0.8355200366746773  1.0000
  Pu  Pu334     1.0  0.8529295901903303  0.1981114146149225  0.8799846979993946  1.0000
  Cl  Cl1862    1.0  0.8978367271032126  0.20584543301460187  0.8253162187887215  1.0000
  Na  Na861     1.0  0.9898675141556731  0.12659081842396705  0.9239303809473387  1.0000
  Cl  Cl1863    1.0  0.9565143659655305  0.2714546380533896  0.9188460469693113  1.0000
  Na  Na862     1.0  0.9512852969820287  0.21210708288001795  0.8868699489741124  1.0000
  Cl  Cl1864    1.0  0.9938559973779646  0.3219526814634602  0.8747370202294743  1.0000
  Pu  Pu335     1.0  0.05434220515547461  0.3190021549947147  0.8460691509308367  1.0000
  Cl  Cl1865    1.0  0.10456483852655646  0.31067989217992803  0.8748073200892762  1.0000
  Na  Na863     1.0  0.259530541245222  0.30005634277809606  0.7926350545525681  1.0000
  Cl  Cl1866    1.0  0.2110525849829891  0.3207472456321507  0.7669838762966071  1.0000
  Na  Na864     1.0  0.13930744276925455  0.3392030264730912  0.8501713545145725  1.0000
  Cl  Cl1867    1.0  0.3987594135829332  0.30704704354251683  0.8689993110838762  1.0000
  Na  Na865     1.0  0.34437006616853266  0.26864264366131263  0.8309340046440694  1.0000
  Na  Na866     1.0  0.42607917968772224  0.29357428217577153  0.8086220697286999  1.0000
  Cl  Cl1868    1.0  0.31944669822581506  0.2585132609210295  0.8874881742117823  1.0000
  Cl  Cl1869    1.0  0.45563406780562543  0.37330672904876594  0.8475475156296124  1.0000
  Na  Na867     1.0  0.4533948105066406  0.32294308242949316  0.8864832997452018  1.0000
  Cl  Cl1870    1.0  0.5844048021763327  0.3026760463771854  0.9110882506758754  1.0000
  Cl  Cl1871    1.0  0.6003504644937574  0.2566379087786664  0.8502499249461157  1.0000
  Cl  Cl1872    1.0  0.6364329013585628  0.36316907573674134  0.8872400570595401  1.0000
  Na  Na868     1.0  0.6104343590894629  0.30606491314822526  0.8703536172065309  1.0000
  Cl  Cl1873    1.0  0.6897139921596155  0.19547641045811154  0.8939206113836584  1.0000
  Na  Na869     1.0  0.6772502405453213  0.2541836166144051  0.9185751857447804  1.0000
  Na  Na870     1.0  0.7530541658411494  0.23017828213498323  0.7984678752731925  1.0000
  Pu  Pu336     1.0  0.7877492142963344  0.2922695994835653  0.8377179411149551  1.0000
  Cl  Cl1874    1.0  0.745323248905873  0.320707960416379  0.8569780350577471  1.0000
  Cl  Cl1875    1.0  0.8333200645914642  0.26549982639957953  0.8630465670730014  1.0000
  Cl  Cl1876    1.0  0.8978698093901781  0.24620458252688665  0.8919997710967176  1.0000
  Pu  Pu337     1.0  0.9415735781146863  0.29041699141349103  0.8694004338133341  1.0000
  Na  Na871     1.0  0.9866233823901077  0.39143788994885637  0.8059093221975198  1.0000
  Cl  Cl1877    1.0  0.059523098058582906  0.3586616141376768  0.8999291817537876  1.0000
  Cl  Cl1878    1.0  0.13231343377613722  0.3861054388185869  0.8634435545165887  1.0000
  Na  Na872     1.0  0.1346862608087457  0.42774156460774426  0.8211561212027958  1.0000
  Pu  Pu338     1.0  0.2897222633872132  0.3591392396557428  0.8873682509215318  1.0000
  Cl  Cl1879    1.0  0.1961796158204243  0.32455997920493745  0.8830282684002307  1.0000
  Cl  Cl1880    1.0  0.25375561452678747  0.39719834316674346  0.8612952735067594  1.0000
  Cl  Cl1881    1.0  0.2907478142831471  0.34607793923313235  0.7720103162724447  1.0000
  Cl  Cl1882    1.0  0.3111988705567011  0.3906066974888454  0.8488025748913702  1.0000
  Na  Na873     1.0  0.3896824610967436  0.4052063242553568  0.9661867996171013  1.0000
  Na  Na874     1.0  0.4229301594971831  0.4104085138806992  0.8677959428955021  1.0000
  Cl  Cl1883    1.0  0.48460381297282434  0.4301317598410097  0.9021105450505825  1.0000
  Na  Na875     1.0  0.38421147788980564  0.4490941132011111  0.8119840571415802  1.0000
  Cl  Cl1884    1.0  0.5378042656993983  0.39737409281624825  0.9109352450986594  1.0000
  Cl  Cl1885    1.0  0.5254666403041605  0.4317341831159065  0.8316845590296017  1.0000
  Pu  Pu339     1.0  0.5887406494117632  0.3689419348122405  0.9152359424041888  1.0000
  Na  Na876     1.0  0.6961981204048754  0.3373814330470472  0.8681763891956066  1.0000
  Cl  Cl1886    1.0  0.5948794812868194  0.43208568241491613  0.9043787493506623  1.0000
  Cl  Cl1887    1.0  0.5744532367284898  0.3640106064114291  0.8626289032000606  1.0000
  Cl  Cl1888    1.0  0.6898297801639952  0.37612492636964895  0.8242141651041796  1.0000
  Cl  Cl1889    1.0  0.7151025797627869  0.35442708140607854  0.915331053979215  1.0000
  Cl  Cl1890    1.0  0.7839426836523536  0.38685806084705454  0.9020567863342633  1.0000
  Na  Na877     1.0  0.7555601490787943  0.38425283074851263  0.8431620449637336  1.0000
  Cl  Cl1891    1.0  0.8137208772072747  0.3262761228412785  0.8860697711581317  1.0000
  Na  Na878     1.0  0.8626537149152849  0.32133652386872563  0.8461249772900911  1.0000
  Na  Na879     1.0  0.7684002117073223  0.32668965142834866  0.9100689027087474  1.0000
  Cl  Cl1892    1.0  0.9189639026166262  0.3412293165497349  0.851045967476226  1.0000
  Pu  Pu340     1.0  0.9094196628270473  0.39440702520402  0.8812728395481181  1.0000
  Cl  Cl1893    1.0  0.8584253851124926  0.37666251353284014  0.9108318629518918  1.0000
  Cl  Cl1894    1.0  0.9566508303992637  0.3930341102949471  0.8508578119691089  1.0000
  Na  Na880     1.0  0.022798658062351148  0.43702114610159826  0.9312126193656438  1.0000
  Cl  Cl1895    1.0  0.17396258571578732  0.5000036175553165  0.8850773025491633  1.0000
  Na  Na881     1.0  0.08980476266826184  0.40422419386106523  0.89475593912954  1.0000
  Cl  Cl1896    1.0  0.10192115026941703  0.4783326519499056  0.93042277976434  1.0000
  Cl  Cl1897    1.0  0.051565360693298604  0.49824198577439766  0.8382389871346635  1.0000
  Na  Na882     1.0  0.20626268335895562  0.4252190402266164  0.8471525958289604  1.0000
  Na  Na883     1.0  0.24344221156525808  0.4822797823134901  0.8089198103113903  1.0000
  Cl  Cl1898    1.0  0.18775293703740245  0.4525822268330478  0.8123975857286502  1.0000
  Cl  Cl1899    1.0  0.25082369684446015  0.4669730216630888  0.8737176722623465  1.0000
  Cl  Cl1900    1.0  0.31620463410318517  0.4786882865347859  0.8302372089748562  1.0000
  Pu  Pu341     1.0  0.303263256970825  0.44308140754511127  0.8770651861746792  1.0000
  Cl  Cl1901    1.0  0.40525801532874056  0.4981489418423069  0.8133673102653297  1.0000
  Na  Na884     1.0  0.5128002596822021  0.382079738023459  0.8627839764202119  1.0000
  Cl  Cl1902    1.0  0.4929012640723867  0.4886729342695945  0.893370618362855  1.0000
  Cl  Cl1903    1.0  0.6345575492161998  0.46642716392815614  0.8584336556842339  1.0000
  Na  Na885     1.0  0.6685061785717232  0.41166150549952174  0.8609499771365559  1.0000
  Cl  Cl1904    1.0  0.7209932944856011  0.42737145652231645  0.8757336241243134  1.0000
  Na  Na886     1.0  0.7793835309799053  0.44263066138520474  0.8824658695218154  1.0000
  Cl  Cl1905    1.0  0.8008766792928761  0.42405082196814325  0.8190822753386391  1.0000
  Cl  Cl1906    1.0  0.9203636968838587  0.4354228581125722  0.9215257122135257  1.0000
  Cl  Cl1907    1.0  0.8940136553157492  0.45296887606195835  0.8609603153512325  1.0000
  Na  Na887     1.0  0.8368185164380775  0.42087078713357384  0.8754813716862007  1.0000
  Na  Na888     1.0  0.00697994902115695  0.5236078293052803  0.8718278466194359  1.0000
  Cl  Cl1908    1.0  0.9767896725895797  0.49581457296829595  0.904418034566434  1.0000
  Cl  Cl1909    1.0  0.005261861800456626  0.5570188714976125  0.8354559397436814  1.0000
  Cl  Cl1910    1.0  0.1061709835587369  0.540390887011522  0.9072031496003513  1.0000
  Cl  Cl1911    1.0  0.04578629868899335  0.5526209949741215  0.9118636167766319  1.0000
  Pu  Pu342     1.0  0.14785466513540735  0.5101247297238583  0.935511249028238  1.0000
  Cl  Cl1912    1.0  0.2127811344769423  0.550584366682801  0.8557147052242479  1.0000
  Cl  Cl1913    1.0  0.15512243005316512  0.5557555416641131  0.8046935481515335  1.0000
  Na  Na889     1.0  0.315791105516115  0.5362121806391782  0.8292695520811121  1.0000
  Cl  Cl1914    1.0  0.28081278997878695  0.5565350430507404  0.8764655697234276  1.0000
  Cl  Cl1915    1.0  0.26733796096910634  0.5322236974168867  0.8106297510189254  1.0000
  Pu  Pu343     1.0  0.25591216610835826  0.5789276160405887  0.8330905562256403  1.0000
  Cl  Cl1916    1.0  0.38669471705516184  0.5452333067661135  0.8894607055721068  1.0000
  Cl  Cl1917    1.0  0.4412163936174248  0.564844900007915  0.853682212218798  1.0000
  Na  Na890     1.0  0.4504049988221235  0.5067234570952063  0.8591035719952876  1.0000
  Cl  Cl1918    1.0  0.5160133768037372  0.5685253044328392  0.8724129895701402  1.0000
  Cl  Cl1919    1.0  0.553361211144977  0.5070067241773494  0.8547429130446329  1.0000
  Pu  Pu344     1.0  0.572732957806278  0.5670862249498352  0.869983509121103  1.0000
  Cl  Cl1920    1.0  0.5528050151953677  0.5715481984043219  0.9272137979286756  1.0000
  Cl  Cl1921    1.0  0.6447014054570304  0.5128808977566807  0.9419622949865322  1.0000
  Cl  Cl1922    1.0  0.6753459414018633  0.5238290670993627  0.805344855676169  1.0000
  Na  Na891     1.0  0.6542311717460618  0.5169706954828045  0.859064286779516  1.0000
  Cl  Cl1923    1.0  0.7495288346363763  0.48932837708010074  0.8973094781546982  1.0000
  Na  Na892     1.0  0.739651704334206  0.5732622743977277  0.8544989311782615  1.0000
  Cl  Cl1924    1.0  0.833301455805046  0.47668887581630176  0.888571619109906  1.0000
  Pu  Pu345     1.0  0.7976325475273108  0.5162697645277206  0.902573697068101  1.0000
  Na  Na893     1.0  0.9538698506512171  0.47663925238585336  0.9571636058472307  1.0000
  Cl  Cl1925    1.0  0.9163731460186317  0.5505450814670294  0.8840765633684535  1.0000
  Pu  Pu346     1.0  0.035452632826697535  0.5915505761609048  0.871951905195557  1.0000
  Cl  Cl1926    1.0  0.03506329566197099  0.6527031836168377  0.8499645902210374  1.0000
  Cl  Cl1927    1.0  0.09329783864324333  0.5828230553307894  0.8503367659494006  1.0000
  Cl  Cl1928    1.0  0.16907054253074755  0.5694660819684237  0.9146218524523897  1.0000
  Cl  Cl1929    1.0  0.1884888111580938  0.6770372733229801  0.9034483100297545  1.0000
  Pu  Pu347     1.0  0.14584491620224646  0.563777996253274  0.8620437602493564  1.0000
  Na  Na894     1.0  0.22515597744501634  0.5902955168991469  0.9081790770658369  1.0000
  Na  Na895     1.0  0.3146125490429651  0.6092868172603433  0.8951694677166101  1.0000
  Cl  Cl1930    1.0  0.21869252562911  0.6206443799042247  0.861516511300842  1.0000
  Cl  Cl1931    1.0  0.37330259376289526  0.6115715627039058  0.9213334214205382  1.0000
  Cl  Cl1932    1.0  0.3833099855699927  0.6346505931482905  0.8446548831630568  1.0000
  Pu  Pu348     1.0  0.4109667774732439  0.6019694289121371  0.8870415633377465  1.0000
  Cl  Cl1933    1.0  0.4631706263049788  0.6164863499612344  0.8480458175770319  1.0000
  Cl  Cl1934    1.0  0.5927849589933092  0.6149521589032043  0.8827946247485362  1.0000
  Na  Na896     1.0  0.5826431703954139  0.6331205373761309  0.8366448344315082  1.0000
  Cl  Cl1935    1.0  0.6100208305023928  0.5402937077935606  0.8993461064460186  1.0000
  Na  Na897     1.0  0.5843489758170783  0.6666515028587136  0.8985541992017794  1.0000
  Cl  Cl1936    1.0  0.6089332503183983  0.5550277313508697  0.8301545032574422  1.0000
  Na  Na898     1.0  0.7976056681691512  0.6371131558842933  0.801507310388158  1.0000
  Cl  Cl1937    1.0  0.677601739844331  0.5637283728228255  0.9100048057777516  1.0000
  Cl  Cl1938    1.0  0.8087109783749199  0.5533115877145287  0.8574990810774554  1.0000
  Cl  Cl1939    1.0  0.7669363205090941  0.5645926475698022  0.9178018872869592  1.0000
  Cl  Cl1940    1.0  0.8318809851084601  0.557304206222691  0.9324242581257594  1.0000
  Na  Na899     1.0  0.8997162145314463  0.537142619960086  0.8229177529837146  1.0000
  Na  Na900     1.0  0.8351209815881546  0.6176938534354793  0.8650004896469078  1.0000
  Cl  Cl1941    1.0  0.8654843180937799  0.5853000915673396  0.824853066771203  1.0000
  Na  Na901     1.0  0.9796657639126526  0.5473112879161409  0.9237132784391269  1.0000
  Na  Na902     1.0  0.9740273016279511  0.6457807150692835  0.8646055698462559  1.0000
  Cl  Cl1942    1.0  0.9093617688248575  0.6130726714749705  0.9077510749782194  1.0000
  Cl  Cl1943    1.0  0.037408209514952245  0.7211318265622697  0.8636234394519643  1.0000
  Cl  Cl1944    1.0  0.07479801700777987  0.6934316141573761  0.9204650113876909  1.0000
  Cl  Cl1945    1.0  0.3260590203330667  0.6688659484424743  0.8913525988579527  1.0000
  Cl  Cl1946    1.0  0.27772579907630834  0.6757160494872911  0.8182035270911151  1.0000
  Cl  Cl1947    1.0  0.2510221905662538  0.714041878936952  0.884969785116525  1.0000
  Na  Na903     1.0  0.24329747655978354  0.6586641981994538  0.898115858899485  1.0000
  Pu  Pu349     1.0  0.3036333650562528  0.706714152374069  0.8559731605911666  1.0000
  Na  Na904     1.0  0.38833022261702427  0.6857875382253844  0.8785084009435541  1.0000
  Na  Na905     1.0  0.46530029852839005  0.7011418546632989  0.88659081717784  1.0000
  Cl  Cl1948    1.0  0.4620892490497904  0.6800622349373984  0.8359087535465233  1.0000
  Na  Na906     1.0  0.5244204129788731  0.7101381690750099  0.8439498169221022  1.0000
  Cl  Cl1949    1.0  0.5180417345233161  0.677171670113778  0.8978263888885358  1.0000
  Cl  Cl1950    1.0  0.572226385287117  0.7322908954843574  0.9053215945291823  1.0000
  Na  Na907     1.0  0.5494347572107461  0.7903544443948762  0.9081542653506126  1.0000
  Cl  Cl1951    1.0  0.7141990198000386  0.6178282502262771  0.863952194678685  1.0000
  Na  Na908     1.0  0.6895196337236925  0.665191746946356  0.9661433791154588  1.0000
  Cl  Cl1952    1.0  0.7368727922290946  0.682330439237478  0.924215715672417  1.0000
  Cl  Cl1953    1.0  0.7044397451451833  0.7131073043301734  0.8494228677719755  1.0000
  Cl  Cl1954    1.0  0.7857167212908845  0.6279741741100431  0.8812480278328938  1.0000
  Na  Na909     1.0  0.8757212182667014  0.6931855646480692  0.8538145413666605  1.0000
  Cl  Cl1955    1.0  0.8641796354015736  0.6627002372092584  0.896842190851309  1.0000
  Na  Na910     1.0  0.900214516478866  0.5910067860689076  0.8578981361639781  1.0000
  Cl  Cl1956    1.0  0.9397251053304828  0.6930739119295605  0.8788888472436586  1.0000
  Na  Na911     1.0  0.03279426430471712  0.8119344337111317  0.8950454091404892  1.0000
  Cl  Cl1957    1.0  0.10917009963646312  0.8371824215946992  0.8965030974099114  1.0000
  Na  Na912     1.0  0.2078415355043894  0.7298800238217386  0.9112681356112509  1.0000
  Cl  Cl1958    1.0  0.18066360970496548  0.7683671294203567  0.8933747536487258  1.0000
  Na  Na913     1.0  0.22781289861694204  0.7994127880946477  0.8747907789457935  1.0000
  Cl  Cl1959    1.0  0.2730115731837087  0.8273156295072057  0.8845293771712954  1.0000
  Na  Na914     1.0  0.34262290788816124  0.7981246465459243  0.9223796487458256  1.0000
  Cl  Cl1960    1.0  0.4249440437162147  0.7500540159419554  0.8584874144005531  1.0000
  Cl  Cl1961    1.0  0.33325855303395785  0.7452136638302994  0.8909287320562059  1.0000
  Cl  Cl1962    1.0  0.4972701935947828  0.7537881790831988  0.8609458418506851  1.0000
  Pu  Pu350     1.0  0.4619031611856088  0.7859793119436742  0.8857368806455402  1.0000
  Cl  Cl1963    1.0  0.5029975645257043  0.8050367768788017  0.9153972185531463  1.0000
  Cl  Cl1964    1.0  0.5646029857844789  0.7612027466493665  0.9669538951461163  1.0000
  Cl  Cl1965    1.0  0.6361454989905491  0.8084938758667082  0.8760892587091937  1.0000
  Na  Na915     1.0  0.607227444896734  0.7377184581896531  0.8705707197147428  1.0000
  Cl  Cl1966    1.0  0.716529253388179  0.766653053426951  0.8939888436005249  1.0000
  Na  Na916     1.0  0.7311805712280741  0.6681112587710711  0.8661542344048336  1.0000
  Na  Na917     1.0  0.8906268561876447  0.6870012446284354  0.9322030203316768  1.0000
  Na  Na918     1.0  0.026736070504139516  0.8844818213837823  0.935240387803707  1.0000
  Cl  Cl1967    1.0  0.9362514651990936  0.7731868051026592  0.8237427425149196  1.0000
  Na  Na919     1.0  0.9736882081865537  0.741785511843488  0.8417994682693375  1.0000
  Na  Na920     1.0  0.03155450560068083  0.9011925115872869  0.8616033523041267  1.0000
  Cl  Cl1968    1.0  0.006967853309985149  0.8588244401990153  0.8885840249675182  1.0000
  Cl  Cl1969    1.0  0.07234641277933453  0.9177129786407391  0.8919274035939803  1.0000
  Na  Na921     1.0  0.1537114705140818  0.8540006292308421  0.8517262220019562  1.0000
  Cl  Cl1970    1.0  0.15313914694957673  0.8855197781373284  0.8916854893705443  1.0000
  Na  Na922     1.0  0.22419865876594894  0.8839607753640739  0.8841902837298978  1.0000
  Cl  Cl1971    1.0  0.28196239945084195  0.9002062459071245  0.8981530764723212  1.0000
  Na  Na923     1.0  0.3213344562257903  0.9374899833173687  0.9051768595237076  1.0000
  Cl  Cl1972    1.0  0.3509348324882712  0.8314529830208425  0.8674465112394278  1.0000
  Na  Na924     1.0  0.4073546052651862  0.8400709187753842  0.886259994308184  1.0000
  Cl  Cl1973    1.0  0.41558382414788203  0.8932755067878289  0.8701323794124484  1.0000
  Cl  Cl1974    1.0  0.5070480770360564  0.8765420725120356  0.7951596465766313  1.0000
  Na  Na925     1.0  0.5931840140798319  0.8448264975266909  0.8797055662031222  1.0000
  Na  Na926     1.0  0.5344340077147766  0.858032532954776  0.9419064686272778  1.0000
  Cl  Cl1975    1.0  0.5417038402754698  0.8754586276139117  0.8856541749281263  1.0000
  Cl  Cl1976    1.0  0.6948562201398327  0.8114898904800314  0.8200044440878056  1.0000
  Na  Na927     1.0  0.7600179872474105  0.8843949803804976  0.8745095795065858  1.0000
  Cl  Cl1977    1.0  0.7817757938561062  0.7864838168198998  0.8873599803497905  1.0000
  Pu  Pu351     1.0  0.7421473493571743  0.8075634365458003  0.8582413648912464  1.0000
  Cl  Cl1978    1.0  0.7038297904792548  0.8392252528148259  0.8840476163673587  1.0000
  Cl  Cl1979    1.0  0.8208170277613984  0.869493477745425  0.8965299767680709  1.0000
  Na  Na928     1.0  0.8768811659534331  0.8933871595063378  0.870926354299623  1.0000
  Cl  Cl1980    1.0  0.9237649695125105  0.8767529720914413  0.8402570066395658  1.0000
  Na  Na929     1.0  0.9463891185111182  0.8547118984006027  0.8956491608776115  1.0000
  Cl  Cl1981    1.0  0.9508304155362514  0.9107987806649263  0.9539194740816653  1.0000
  Cl  Cl1982    1.0  0.06800808437238165  0.9856722666398464  0.8536863475046688  1.0000
  Cl  Cl1983    1.0  0.9902769074568725  0.9427728110171897  0.858233094319505  1.0000
  Pu  Pu352     1.0  0.01860576765947084  0.9877047596452961  0.8787027593794771  1.0000
  Cl  Cl1984    1.0  0.017239675972084624  0.9534046309907631  0.9221604785946784  1.0000
  Cl  Cl1985    1.0  0.05524287041811339  0.01824624590587206  0.9178370372168602  1.0000
  Na  Na930     1.0  0.15444093494167355  0.9388773717269889  0.8831233799752568  1.0000
  Cl  Cl1986    1.0  0.24233188730897476  0.9907317889026496  0.8241955563177615  1.0000
  Cl  Cl1987    1.0  0.22743865524564352  0.9373721276700536  0.8703412113489188  1.0000
  Cl  Cl1988    1.0  0.3066190414548992  0.924610635473069  0.8274562292268095  1.0000
  Na  Na931     1.0  0.30131140203985396  0.945316011827671  0.0005928159736373395  1.0000
  Cl  Cl1989    1.0  0.3708296928122157  0.9451009769623946  0.8947063156990915  1.0000
  Na  Na932     1.0  0.41833378925189846  0.9606889370520038  0.8651824422252187  1.0000
  Cl  Cl1990    1.0  0.40557022941197857  0.9326765105638721  0.8168802356124907  1.0000
  Na  Na933     1.0  0.5090909082561829  0.9716350387517505  0.8228205737657531  1.0000
  Cl  Cl1991    1.0  0.4920638686835697  0.911993878281559  0.881833170783598  1.0000
  Cl  Cl1992    1.0  0.6022899135671165  0.9222845371707995  0.8509425853294583  1.0000
  Na  Na934     1.0  0.6082219811486377  0.9781956697856182  0.8359149564753294  1.0000
  Cl  Cl1993    1.0  0.65893712706692  0.962783459345514  0.8144424845917121  1.0000
  Na  Na935     1.0  0.6851631100589085  0.9034090248139828  0.8624345447641376  1.0000
  Cl  Cl1994    1.0  0.7433548528314191  0.016390805164976388  0.8977726301722166  1.0000
  Cl  Cl1995    1.0  0.8055019965392557  0.9552386302744191  0.9025282089235234  1.0000
  Cl  Cl1996    1.0  0.8047349010102405  0.9975640478285752  0.8366510373603141  1.0000
  Cl  Cl1997    1.0  0.8836568318525774  0.9536300040707164  0.8919956358108468  1.0000
  Cl  Cl1998    1.0  0.9541076295887824  6.007205725791853e-05  0.8870043457649102  1.0000
  Pu  Pu353     1.0  0.07069105784529274  0.07373710941765141  0.9270711305661363  1.0000
  Cl  Cl1999    1.0  0.059959991010822514  0.12694521242308618  0.9205456494621695  1.0000
  Cl  Cl2000    1.0  0.08244974321863227  0.07322040544810726  0.9841773607975878  1.0000
  Cl  Cl2001    1.0  0.014782509784143185  0.0741839270559807  0.9420470683468816  1.0000
  Cl  Cl2002    1.0  0.12449836377339213  0.042197077317518046  0.9380172322658831  1.0000
  Na  Na936     1.0  0.20758101249453526  0.9790123887450818  0.017383707978961153  1.0000
  Cl  Cl2003    1.0  0.2821402167432821  0.0027788293993939494  0.957235973349968  1.0000
  Pu  Pu354     1.0  0.2861473087519918  0.05448507928230736  0.9321844115452588  1.0000
  Cl  Cl2004    1.0  0.34800291480594386  0.03732798496906063  0.9265976403339411  1.0000
  Na  Na937     1.0  0.48393596430470603  0.08806215320234825  0.9786608894460721  1.0000
  Cl  Cl2005    1.0  0.44668117389555684  0.04069555501786635  0.9648262905656405  1.0000
  Cl  Cl2006    1.0  0.4984632235684802  0.07976118710979573  0.899348174088954  1.0000
  Cl  Cl2007    1.0  0.6064210641519472  0.04345068922922118  0.9427583375166422  1.0000
  Cl  Cl2008    1.0  0.6247879363466676  0.10911551386296986  0.013179114717066764  1.0000
  Na  Na938     1.0  0.738696453298074  0.052018174496140414  0.9367414965747717  1.0000
  Cl  Cl2009    1.0  0.7057692395526138  0.9766304640835578  0.9490770543270741  1.0000
  Cl  Cl2010    1.0  0.7948660412798115  0.01563148397339819  0.9463374274377344  1.0000
  Cl  Cl2011    1.0  0.8629121702822036  0.015091188197961694  0.9143571941566648  1.0000
  Pu  Pu355     1.0  0.8315542975246747  0.056298815665197004  0.9285805099089424  1.0000
  Cl  Cl2012    1.0  0.8596742414454445  0.06863499371037998  0.9929028139847679  1.0000
  Na  Na939     1.0  0.9655168833060476  0.9474518869798885  0.9961304046068504  1.0000
  Cl  Cl2013    1.0  0.9203574939550526  0.029352052345945245  0.03884025901197615  1.0000
  Na  Na940     1.0  0.9326620370633247  0.042219614625513366  0.9915402372903718  1.0000
  Cl  Cl2014    1.0  0.10898194412934621  0.18411119753536928  0.9606806664802623  1.0000
  Na  Na941     1.0  0.04740340222873114  0.17067896197015683  0.995856960468291  1.0000
  Pu  Pu356     1.0  0.1499826832444703  0.1675617834808221  0.9238456075869893  1.0000
  Cl  Cl2015    1.0  0.12122735264966727  0.16321580479500844  0.8743979267880768  1.0000
  Cl  Cl2016    1.0  0.13957582282226308  0.11006456197029585  0.924527929755655  1.0000
  Cl  Cl2017    1.0  0.22847454435625425  0.07150240093312436  0.9312705133678336  1.0000
  Na  Na942     1.0  0.22416557647898333  0.20344986190970452  0.9094362039705302  1.0000
  Cl  Cl2018    1.0  0.20700000482970168  0.15200545832812393  0.9170161829715259  1.0000
  Cl  Cl2019    1.0  0.2614679226756456  0.17741803058934547  0.9829946690385672  1.0000
  Cl  Cl2020    1.0  0.2958073365459503  0.10852768297644964  0.9299430866033385  1.0000
  Na  Na943     1.0  0.38843153712085643  0.06322087068416413  0.9693213463070929  1.0000
  Cl  Cl2021    1.0  0.3890973181460394  0.11083537925659459  0.9377587768989643  1.0000
  Cl  Cl2022    1.0  0.44881084611896804  0.1358304944091688  0.9524597181693077  1.0000
  Na  Na944     1.0  0.5770853461851911  0.08078653124143614  0.9936306242980113  1.0000
  Cl  Cl2023    1.0  0.5497655800804021  0.12686540140578162  0.028667249005757088  1.0000
  Pu  Pu357     1.0  0.4886625960549178  0.17187033782950592  0.9312415663667388  1.0000
  Cl  Cl2024    1.0  0.5230867832855719  0.13812764571034344  0.9509792858275967  1.0000
  Cl  Cl2025    1.0  0.677684445561745  0.06000920091268386  0.9198426508641502  1.0000
  Na  Na945     1.0  0.6585670189814923  0.0856217142457538  0.9712256454505509  1.0000
  Cl  Cl2026    1.0  0.6108023995319554  0.15880883064260193  0.9722243169883253  1.0000
  Cl  Cl2027    1.0  0.7126007318110125  0.11039993365440973  0.9608750249161853  1.0000
  Cl  Cl2028    1.0  0.784498879601963  0.08844921595984591  0.94763797484407  1.0000
  Cl  Cl2029    1.0  0.7482965194469073  0.07772311146842052  0.008287485060614037  1.0000
  Na  Na946     1.0  0.9084209912892729  0.11499630389969437  0.9749101851613459  1.0000
  Na  Na947     1.0  0.8087523312336269  0.07787466969558174  0.014514088378275954  1.0000
  Cl  Cl2030    1.0  0.9418527099109586  0.14807280146508686  0.9380151646229477  1.0000
  Na  Na948     1.0  0.98554614042079  0.2475278740055111  0.9634285639413435  1.0000
  Na  Na949     1.0  0.10134345083328004  0.2528417163493624  0.8722889309940192  1.0000
  Cl  Cl2031    1.0  0.01369093904928348  0.21610176903111553  0.9985511984599139  1.0000
  Cl  Cl2032    1.0  0.08868327314012761  0.25133440464949175  0.9388773717269889  1.0000
  Na  Na950     1.0  0.1899090750903862  0.2700403702856097  0.870572787357678  1.0000
  Na  Na951     1.0  0.2668458619504928  0.23813663979314814  0.8789674176752019  1.0000
  Cl  Cl2033    1.0  0.16149449205132896  0.22026393425997656  0.9139436655695946  1.0000
  Cl  Cl2034    1.0  0.2412008866233379  0.25135714872178067  0.9275942442287801  1.0000
  Na  Na952     1.0  0.2809161721255545  0.22004683175176473  0.955850652583283  1.0000
  Cl  Cl2035    1.0  0.4129475794053099  0.24919439421140377  0.9552696449184495  1.0000
  Cl  Cl2036    1.0  0.45424874703894047  0.30695813489629675  0.9436908444804855  1.0000
  Na  Na953     1.0  0.4500845141671441  0.09655416950212718  0.9176137317798422  1.0000
  Pu  Pu358     1.0  0.46697922459189484  0.2648505865178794  0.9838506732138024  1.0000
  Cl  Cl2037    1.0  0.4732627914724256  0.20887949225793548  0.979196408966328  1.0000
  Cl  Cl2038    1.0  0.5399070585646499  0.20437079007310974  0.9600045472404026  1.0000
  Cl  Cl2039    1.0  0.6629194073604054  0.2270127208009613  0.9806168796629139  1.0000
  Na  Na954     1.0  0.6855125417149828  0.15583638715874173  0.9493210361934455  1.0000
  Cl  Cl2040    1.0  0.7566394586910474  0.18201129937022706  0.9220116083033332  1.0000
  Na  Na955     1.0  0.8353980457414916  0.17997177637879713  0.9448239128090576  1.0000
  Cl  Cl2041    1.0  0.8786882858789297  0.1894864488744005  0.9250717198476522  1.0000
  Pu  Pu359     1.0  0.9001132019750336  0.2166827766959491  0.9906408126134941  1.0000
  Cl  Cl2042    1.0  0.9288306947041197  0.2599792197621931  0.9758799096980254  1.0000
  Cl  Cl2043    1.0  0.8153170975533655  0.22458530799485954  0.9177398579988987  1.0000
  Cl  Cl2044    1.0  0.9587391497639679  0.19682616776630849  0.9653535395141549  1.0000
  Cl  Cl2045    1.0  0.917719181569545  0.16142129749141754  0.014208532105289827  1.0000
  Cl  Cl2046    1.0  0.030185725977478654  0.2858288917399478  0.9581002480969446  1.0000
  Pu  Pu360     1.0  0.07585623666209236  0.3056886021339914  0.9311030342900702  1.0000
  Cl  Cl2047    1.0  0.12734592162395714  0.33112474552467597  0.9390138361607222  1.0000
  Cl  Cl2048    1.0  0.06609241319277921  0.34039605644678855  0.9747303002259704  1.0000
  Cl  Cl2049    1.0  0.26495190102171157  0.3209064541381727  0.8546147191826412  1.0000
  Na  Na956     1.0  0.2947011475755377  0.2841623715340551  0.9325503843448157  1.0000
  Cl  Cl2050    1.0  0.17505698912146847  0.34849087853868665  0.9708224550781576  1.0000
  Cl  Cl2051    1.0  0.3394883611981696  0.3392505822606042  0.8950826267133254  1.0000
  Na  Na957     1.0  0.38897946249872434  0.2563091535519456  0.8812562984046352  1.0000
  Pu  Pu361     1.0  0.37250241594691447  0.24118641312279043  0.9899254081578629  1.0000
  Cl  Cl2052    1.0  0.3551032006459382  0.2893955758034278  0.9685066949905647  1.0000
  Na  Na958     1.0  0.3918845008228921  0.3311888424556718  0.918320865663732  1.0000
  Cl  Cl2053    1.0  0.45882237321193625  0.30529988526214547  0.022052859255570142  1.0000
  Cl  Cl2054    1.0  0.4875150542257981  0.3531182634280015  0.9042919083473775  1.0000
  Cl  Cl2055    1.0  0.5098207862123617  0.2705820927346716  0.9487296903139352  1.0000
  Na  Na959     1.0  0.5148761731892941  0.3170151501338426  0.9248628879111818  1.0000
  Na  Na960     1.0  0.6040804923491302  0.22355148652718418  0.9525589650302047  1.0000
  Cl  Cl2056    1.0  0.5800896313702557  0.3113746202062059  0.002634818068946772  1.0000
  Cl  Cl2057    1.0  0.649221272913707  0.29746351853716624  0.9552985919195444  1.0000
  Pu  Pu362     1.0  0.7068299403784487  0.2322810750002349  0.013515251429066729  1.0000
  Cl  Cl2058    1.0  0.7203337163892243  0.27684291554291357  0.9517422460707411  1.0000
  Cl  Cl2059    1.0  0.764347631554035  0.22827811827739591  0.00945739878629418  1.0000
  Na  Na961     1.0  0.7284533501963465  0.32631954334292085  0.9889163984054117  1.0000
  Cl  Cl2060    1.0  0.7958585098887799  0.29293744815168354  0.9411931318145818  1.0000
  Na  Na962     1.0  0.7601213693941782  0.24139731270219625  0.9490543102547853  1.0000
  Pu  Pu363     1.0  0.847892811999816  0.2847950702722724  0.9238828251598254  1.0000
  Cl  Cl2061    1.0  0.8894276232851412  0.31269791168483035  0.9068599208730831  1.0000
  Na  Na963     1.0  0.9109931391008492  0.3116930372182499  0.9903389367449329  1.0000
  Na  Na964     1.0  0.9594297425043751  0.28286802705652553  0.02848467613456562  1.0000
  Cl  Cl2062    1.0  0.9857094842126827  0.33189597633956175  0.02780090661584514  1.0000
  Cl  Cl2063    1.0  0.9570333443423037  0.3260528174042606  0.9630977410716873  1.0000
  Na  Na965     1.0  0.9999383124933167  0.3456602753601915  0.9298148927413468  1.0000
  Cl  Cl2064    1.0  0.28862020970267127  0.3346852266593499  0.9393860118890852  1.0000
  Na  Na966     1.0  0.17012958924223417  0.3639692535527221  0.9207586166845105  1.0000
  Na  Na967     1.0  0.27703313869296586  0.3869697135655634  0.9748729675885096  1.0000
  Cl  Cl2065    1.0  0.4189354733460856  0.3764826285974647  0.9157115002793196  1.0000
  Cl  Cl2066    1.0  0.3713259271166999  0.3640519592701361  0.9980040794627907  1.0000
  Na  Na968     1.0  0.4137725689365148  0.33535514297040353  0.03435140619932975  1.0000
  Pu  Pu364     1.0  0.47882268332558375  0.3921119415457807  0.9492858862635444  1.0000
  Cl  Cl2067    1.0  0.4510108182021812  0.3840233223826887  0.9996717286017262  1.0000
  Cl  Cl2068    1.0  0.5249063090686805  0.35819846212015827  0.9688768030759926  1.0000
  Na  Na969     1.0  0.5672619745993399  0.4405051244476642  0.9525362209579158  1.0000
  Cl  Cl2069    1.0  0.6072026331815098  0.37643920809582226  0.96762381145717  1.0000
  Pu  Pu365     1.0  0.6334141426729507  0.3296360426112234  0.9953777825783827  1.0000
  Na  Na970     1.0  0.6660250070493022  0.3959970426213047  0.04238564635322203  1.0000
  Pu  Pu366     1.0  0.7322681514120685  0.4026031617997502  0.9284998718344637  1.0000
  Cl  Cl2070    1.0  0.6836495954302318  0.3661237374913575  0.9913417435685782  1.0000
  Cl  Cl2071    1.0  0.7612916552955865  0.3655303239689119  0.9657050388131645  1.0000
  Cl  Cl2072    1.0  0.8583220029657249  0.32925146102524816  0.9702269739127766  1.0000
  Cl  Cl2073    1.0  0.9394190941760509  0.36998402685165727  0.920808240114959  1.0000
  Pu  Pu367     1.0  0.963744913310452  0.374108974507682  0.9920695538818215  1.0000
  Cl  Cl2074    1.0  0.917117497475358  0.38116997513190465  0.020365042327443354  1.0000
  Cl  Cl2075    1.0  0.11159916655691314  0.39146683694995127  0.94970148249355  1.0000
  Pu  Pu368     1.0  0.09890983509837224  0.448444873319411  0.9771515101032661  1.0000
  Na  Na971     1.0  0.22933054853148943  0.4540275092448579  0.9306460852013577  1.0000
  Cl  Cl2076    1.0  0.20587148531558727  0.4039264532783747  0.9142558796528326  1.0000
  Cl  Cl2077    1.0  0.26523930338972534  0.4848271184098422  0.005607881845687568  1.0000
  Na  Na972     1.0  0.20543976147068604  0.3979881827680474  0.9697865659675469  1.0000
  Cl  Cl2078    1.0  0.29049556184503433  0.4098854002180554  0.9195014897798174  1.0000
  Cl  Cl2079    1.0  0.3540983261793577  0.43201538255511424  0.8950640179269073  1.0000
  Pu  Pu369     1.0  0.37911267041123076  0.4980931154830524  0.9215174416417844  1.0000
  Pu  Pu370     1.0  0.4746998033124944  0.4698015571986485  0.9431925425330658  1.0000
  Cl  Cl2080    1.0  0.4033206338983169  0.4693135934659058  0.8808034846017935  1.0000
  Cl  Cl2081    1.0  0.5110758454741196  0.43109941673475377  0.9626800771987465  1.0000
  Na  Na973     1.0  0.6786851847424548  0.4672873033892621  0.9688871412906692  1.0000
  Cl  Cl2082    1.0  0.6742066701444851  0.4186522062639425  0.9336896556021941  1.0000
  Na  Na974     1.0  0.7434685731928633  0.4697726101975536  0.009849299828260554  1.0000
  Na  Na975     1.0  0.8111363235380863  0.400196425423002  0.9613340416478331  1.0000
  Cl  Cl2083    1.0  0.7549336532693831  0.43992411678283067  0.9585840765438166  1.0000
  Na  Na976     1.0  0.8343146008433678  0.48038995667057954  0.9951466010614219  1.0000
  Cl  Cl2084    1.0  0.8419173239166524  0.43603281277850064  0.9516388639239737  1.0000
  Na  Na977     1.0  0.8778240111319531  0.47520017290284927  0.9174048998433717  1.0000
  Na  Na978     1.0  0.0316427939540203  0.45241268011234903  0.020030911229090675  1.0000
  Cl  Cl2085    1.0  0.006189365068396251  0.3968571820824106  0.963331384723382  1.0000
  Cl  Cl2086    1.0  0.04112769239135465  0.47154044490727853  0.9655375597354011  1.0000
  Na  Na979     1.0  0.09331830830830332  0.5896028565158045  0.9442511757159655  1.0000
  Cl  Cl2087    1.0  0.13421256381225685  0.54577296157224  0.9770956837440117  1.0000
  Cl  Cl2088    1.0  0.2053152893659779  0.5021973867097236  0.9432194218912254  1.0000
  Cl  Cl2089    1.0  0.2286399557910823  0.5605855555610925  0.958025812951272  1.0000
  Na  Na980     1.0  0.21812392382188855  0.5066800365935639  4.916482724535642e-05  1.0000
  Cl  Cl2090    1.0  0.3232863111567614  0.48853026690705537  0.9095478566890391  1.0000
  Na  Na981     1.0  0.2589474659374531  0.5198612603064248  0.9098642060581477  1.0000
  Na  Na982     1.0  0.38064892911219633  0.5803274103078211  0.9784706662960199  1.0000
  Cl  Cl2091    1.0  0.3112071411284425  0.5673426126738186  0.9505574866687851  1.0000
  Cl  Cl2092    1.0  0.3731371823280672  0.5252495377959487  0.9685459802063365  1.0000
  Cl  Cl2093    1.0  0.4307768644368391  0.510453484950579  0.9493603214092171  1.0000
  Na  Na983     1.0  0.4713895069729979  0.5561421908930239  0.9666954397791976  1.0000
  Na  Na984     1.0  0.530439321563679  0.5261365566152142  0.9063244013528273  1.0000
  Cl  Cl2094    1.0  0.5088696704621003  0.5117416264993024  0.9609804747058881  1.0000
  Cl  Cl2095    1.0  0.5672867863145641  0.49069095377449684  0.9407341150829339  1.0000
  Pu  Pu371     1.0  0.5993166430260821  0.5420015808581602  0.95857373832914  1.0000
  Cl  Cl2096    1.0  0.6889014084860225  0.5619729439707128  0.009917015134393291  1.0000
  Cl  Cl2097    1.0  0.7034079913204432  0.5114666299889008  0.9753340519630929  1.0000
  Cl  Cl2098    1.0  0.7536331058630475  0.5079164870689037  0.04243981859812821  1.0000
  Cl  Cl2099    1.0  0.8056095139718938  0.5024579097195777  0.9563737662459267  1.0000
  Cl  Cl2100    1.0  0.9110158831731381  0.5717384215543743  0.9715171831044354  1.0000
  Na  Na985     1.0  0.880247288652184  0.5714117339705889  0.9172932471248628  1.0000
  Cl  Cl2101    1.0  0.9103459668620844  0.49548168245570445  0.9745793622916897  1.0000
  Cl  Cl2102    1.0  0.9811151816103334  0.5994262281016557  0.8927358519817024  1.0000
  Cl  Cl2103    1.0  0.061276045739173245  0.6290596866511021  0.9039424766913032  1.0000
  Na  Na986     1.0  0.10861038869386368  0.6540905720264579  0.045572090880891016  1.0000
  Cl  Cl2104    1.0  0.1227778780868868  0.6352750213147664  0.9546700284671977  1.0000
  Na  Na987     1.0  0.18148673835752857  0.5835074451423905  0.9711098574461713  1.0000
  Cl  Cl2105    1.0  0.20592131551032922  0.6340220296959439  0.9632548819347739  1.0000
  Cl  Cl2106    1.0  0.2695916917686386  0.6268390381385355  0.9370702518014925  1.0000
  Pu  Pu372     1.0  0.27382622450023686  0.5800007227240357  0.9868280790407076  1.0000
  Cl  Cl2107    1.0  0.3070491111854522  0.6189799273412674  0.010600102330945107  1.0000
  Cl  Cl2108    1.0  0.44634621574003  0.5769902346101651  0.9174048998433717  1.0000
  Cl  Cl2109    1.0  0.4330388658081128  0.6535860671502324  0.9029500080823348  1.0000
  Cl  Cl2110    1.0  0.4999105736232257  0.6125578283840681  0.9544922111747576  1.0000
  Na  Na988     1.0  0.5034751900437703  0.6151858025548989  0.8971399314339994  1.0000
  Cl  Cl2111    1.0  0.5771122255433507  0.5659407507636509  0.001660778361461209  1.0000
  Cl  Cl2112    1.0  0.5663935645664926  0.6792682600502237  0.9499640731463395  1.0000
  Na  Na989     1.0  0.5798932052913974  0.6273704223729206  0.9736944111153597  1.0000
  Cl  Cl2113    1.0  0.6286792403509976  0.5845454018959366  0.9543950319567961  1.0000
  Pu  Pu373     1.0  0.7060504389918214  0.5635732996026742  0.9549594984781468  1.0000
  Cl  Cl2114    1.0  0.690059288529819  0.6148963325439498  0.9491494218298113  1.0000
  Cl  Cl2115    1.0  0.7508128408992292  0.5840222882332928  0.9846901362455549  1.0000
  Na  Na990     1.0  0.7446843472388497  0.6170487488396499  0.9228200566910554  1.0000
  Na  Na991     1.0  0.8131853576870188  0.5583979893354915  0.9800792924997227  1.0000
  Na  Na992     1.0  0.03138227094416611  0.6495045399958501  0.9494492300554372  1.0000
  Cl  Cl2116    1.0  0.9718790206181217  0.5277927386064301  0.9878267505784819  1.0000
  Cl  Cl2117    1.0  0.004410158322526959  0.6986110597104296  0.948351311656766  1.0000
  Pu  Pu374     1.0  0.03238962658226898  0.73354388710318  0.9156887562070307  1.0000
  Cl  Cl2118    1.0  0.03675152611868486  0.7633923805179029  0.9669704362895992  1.0000
  Cl  Cl2119    1.0  0.15139674424795668  0.725025198209535  0.9545893903927191  1.0000
  Pu  Pu375     1.0  0.16106648996371137  0.6698666876231839  0.9502659490149007  1.0000
  Cl  Cl2120    1.0  0.1478612815928005  0.6743472698640889  0.007245103551186327  1.0000
  Cl  Cl2121    1.0  0.22121918529610857  0.7053164257497719  0.0050621481693311  1.0000
  Na  Na993     1.0  0.17662839775233502  0.7365109547154083  0.016955044245604244  1.0000
  Cl  Cl2122    1.0  0.27903875234025605  0.7066231760849137  0.95621662538284  1.0000
  Pu  Pu376     1.0  0.2573946660930047  0.7428069274535511  0.9913872317131558  1.0000
  Cl  Cl2123    1.0  0.24132908048532964  0.6173506247082111  0.014683428334681179  1.0000
  Na  Na994     1.0  0.33864269523761115  0.7047871091583222  0.9371591604477126  1.0000
  Cl  Cl2124    1.0  0.3925399436333983  0.7091064152502699  0.9223734458170196  1.0000
  Na  Na995     1.0  0.4102968611621902  0.6509829046946258  0.9492796833347384  1.0000
  Cl  Cl2125    1.0  0.4586672999917849  0.673770397485126  0.9790206593168232  1.0000
  Na  Na996     1.0  0.5168507721925542  0.7205032631099231  0.9230454297710086  1.0000
  Cl  Cl2126    1.0  0.5230082128540285  0.6687625662957066  0.013925099611711948  1.0000
  Cl  Cl2127    1.0  0.6305876747803264  0.7757051941979164  0.9757579187648397  1.0000
  Cl  Cl2128    1.0  0.6443106209422491  0.7232573634998101  0.9131352171818725  1.0000
  Pu  Pu377     1.0  0.6101304155779664  0.7170565023366934  0.9576060814353957  1.0000
  Cl  Cl2129    1.0  0.6344810464275917  0.6662462448433848  0.9527884733960286  1.0000
  Cl  Cl2130    1.0  0.6794047244839567  0.7255007560846656  0.9806416913781381  1.0000
  Cl  Cl2131    1.0  0.7799790121452864  0.6429790588918832  0.9572690556369337  1.0000
  Na  Na997     1.0  0.8133094162631399  0.6600329778226559  0.9161395023669371  1.0000
  Cl  Cl2132    1.0  0.881078481112195  0.6637609380350933  0.9855482080637255  1.0000
  Na  Na998     1.0  0.8822404964418622  0.6197366846556057  0.9669683686466638  1.0000
  Cl  Cl2133    1.0  0.9346779889252916  0.6241138847497433  0.01314919592379224  1.0000
  Na  Na999     1.0  0.9292959143645737  0.7360167880538594  0.027671265403798648  1.0000
  Na  Na1000    1.0  0.9433641568967001  0.728999207931279  0.9217428147217376  1.0000
  Cl  Cl2134    1.0  0.9823971202302509  0.7652987473042963  0.9133667931906319  1.0000
  Na  Na1001    1.0  0.059959577482235446  0.8773236415415981  0.003669549299513685  1.0000
  Cl  Cl2135    1.0  0.0710946617462732  0.7826173245307939  0.9094093246123706  1.0000
  Na  Na1002    1.0  0.09816403629159125  0.7592240123602358  0.9880087031567928  1.0000
  Cl  Cl2136    1.0  0.1373562081311641  0.8878500117254686  0.9764423085764408  1.0000
  Cl  Cl2137    1.0  0.22219097747572342  0.7630532870765053  0.9542895821670933  1.0000
  Cl  Cl2138    1.0  0.28359376972683364  0.8079583563464523  0.9545955933215252  1.0000
  Cl  Cl2139    1.0  0.32546560681062103  0.7611303791466293  0.9747034208678108  1.0000
  Cl  Cl2140    1.0  0.32744020581388095  0.8044888515009337  0.03666447835110659  1.0000
  Cl  Cl2141    1.0  0.4676181262589182  0.7450296436090532  0.926120014815875  1.0000
  Na  Na1003    1.0  0.41340452849402237  0.7493530849868716  0.949784188210964  1.0000
  Na  Na1004    1.0  0.46214714305198024  0.8262053052509223  0.9619129816697313  1.0000
  Pu  Pu378     1.0  0.5836211655038348  0.8136361038469254  0.9904154395335409  1.0000
  Cl  Cl2142    1.0  0.5072527736866561  0.7391141171710147  0.00910166081926709  1.0000
  Cl  Cl2143    1.0  0.5777015037799257  0.8259241058117146  0.9376223124652311  1.0000
  Na  Na1005    1.0  0.6951332842931697  0.7233586780036423  0.9095581949037158  1.0000
  Cl  Cl2144    1.0  0.686167984525489  0.832505413274936  0.9680166636148866  1.0000
  Na  Na1006    1.0  0.7847428614683344  0.7090919417497223  0.9384266255670825  1.0000
  Cl  Cl2145    1.0  0.8125733353781551  0.7751758776064667  0.9543516114551538  1.0000
  Cl  Cl2146    1.0  0.8351768079474091  0.7066831377300388  0.938211590701806  1.0000
  Na  Na1007    1.0  0.8317279795312442  0.8072222754614674  0.9057268525445109  1.0000
  Cl  Cl2147    1.0  0.900580489278423  0.8751919016752516  0.9133047639025713  1.0000
  Cl  Cl2148    1.0  0.9102839375740238  0.7344887999246353  0.968856126646639  1.0000
  Cl  Cl2149    1.0  0.022204417482731352  0.9276397323733578  0.9949725245630539  1.0000
  Na  Na1008    1.0  0.9359619951881445  0.9461782189317124  0.8954672082993006  1.0000
  Pu  Pu379     1.0  0.10689879387198034  0.8842254336597988  0.9271848509275806  1.0000
  Cl  Cl2150    1.0  0.06560879151020067  0.8498694786460113  0.9561566637377149  1.0000
  Cl  Cl2151    1.0  0.11281845559588946  0.9412386199591595  0.941412301965729  1.0000
  Na  Na1009    1.0  0.1942600161192447  0.8148952983945539  0.9595662069381083  1.0000
  Cl  Cl2152    1.0  0.2238657682533575  0.8452669054719205  0.9260476473131377  1.0000
  Cl  Cl2153    1.0  0.2064063845429625  0.9410421938803012  0.979396970331057  1.0000
  Pu  Pu380     1.0  0.28240694268194233  0.8587003816228942  0.9330548892210414  1.0000
  Cl  Cl2154    1.0  0.2711568974706991  0.900214516478866  0.9864765797416979  1.0000
  Cl  Cl2155    1.0  0.3365171583000706  0.8740154128450369  0.9280160433875917  1.0000
  Cl  Cl2156    1.0  0.40007650213275164  0.8502664660895987  0.9650206490015635  1.0000
  Pu  Pu381     1.0  0.36822653035660924  0.8996128323846788  0.9768785812357998  1.0000
  Cl  Cl2157    1.0  0.41905539663633584  0.7983458843400069  0.9298913955299548  1.0000
  Na  Na1010    1.0  0.36662617472464776  0.9025240736376527  0.8542425434542781  1.0000
  Na  Na1011    1.0  0.5425102210202565  0.9188915351138889  0.014431217249427097  1.0000
  Cl  Cl2158    1.0  0.5208289172001689  0.8104581366552913  0.9856681313539758  1.0000
  Cl  Cl2159    1.0  0.5596489133113786  0.9135404751972013  0.9463374274377344  1.0000
  Na  Na1012    1.0  0.6713450523219596  0.7953540050125544  0.9276562735168407  1.0000
  Cl  Cl2160    1.0  0.5654114341722011  0.8590498132789685  0.009404777273589505  1.0000
  Cl  Cl2161    1.0  0.6218642892360817  0.8807125083126379  0.9086711760844504  1.0000
  Na  Na1013    1.0  0.6518926675861801  0.8858692097934027  0.9535369601386255  1.0000
  Pu  Pu382     1.0  0.5795851264940302  0.9194560016352398  0.8993212947307944  1.0000
  Na  Na1014    1.0  0.7364985488577961  0.8835245027047149  0.978807692094482  1.0000
  Cl  Cl2162    1.0  0.6831823081268426  0.9033263190965687  0.9964440470033545  1.0000
  Na  Na1015    1.0  0.739699260121719  0.7958833216040041  0.9311981458650965  1.0000
  Cl  Cl2163    1.0  0.7592695005048136  0.8834417969873009  0.9328563954992477  1.0000
  Na  Na1016    1.0  0.8071643814592776  0.8921651825315455  0.9548209664014784  1.0000
  Cl  Cl2164    1.0  0.856771270764212  0.9073437493199552  0.9775712416191422  1.0000
  Cl  Cl2165    1.0  0.9428369079481856  0.8312565569419841  0.9713476363837366  1.0000
  Pu  Pu383     1.0  0.9036302626080653  0.8770610508888086  0.9667843484254177  1.0000
  Na  Na1017    1.0  0.12640865908136265  0.9360736479066534  0.9944183962563798  1.0000
  Cl  Cl2166    1.0  0.15525930801548535  0.9864993238139868  0.0034859839597132483  1.0000
  Na  Na1018    1.0  0.15952981773415872  0.9974633536176237  0.9489054399634399  1.0000
  Na  Na1019    1.0  0.3374000418334654  0.9951234624973345  0.9674335883071178  1.0000
  Cl  Cl2167    1.0  0.33729252440082713  0.9415218870413026  0.9640902096806556  1.0000
  Na  Na1020    1.0  0.4278222026822229  0.9880169737285341  0.9650351225021109  1.0000
  Cl  Cl2168    1.0  0.47902944761911875  0.8788123444550507  0.9614002062217644  1.0000
  Cl  Cl2169    1.0  0.5194146494323889  0.014474306928199806  0.9312167546515145  1.0000
  Na  Na1021    1.0  0.5312581081660779  0.9944981262076079  0.9876820155730074  1.0000
  Na  Na1022    1.0  0.47197464992370214  0.9216725148619357  0.9316550949538088  1.0000
  Na  Na1023    1.0  0.683409748849731  0.008694066367421403  0.905137574307936  1.0000
  Cl  Cl2170    1.0  0.5563985786170073  0.9668360394988014  0.8778963786346902  1.0000
  Cl  Cl2171    1.0  0.6265847180574874  0.9569547739107603  0.933170677225421  1.0000
  Cl  Cl2172    1.0  0.7315279352412131  0.9529125319721496  0.8817463297803134  1.0000
  Pu  Pu384     1.0  0.7562031860316885  0.9704192647057641  0.9256196452255202  1.0000
  Cl  Cl2173    1.0  0.765462091096189  0.9624526364758578  0.9836790588501683  1.0000
  Cl  Cl2174    1.0  0.8436686174828946  0.9608977689884741  0.039187002732234466  1.0000
  Cl  Cl2175    1.0  0.9262564792496082  0.891861239020049  0.023063729886663106  1.0000
  Na  Na1024    1.0  0.9963144248280965  0.02940519076938376  0.9630936057858166  1.0000
  Cl  Cl2176    1.0  0.9485704818079131  0.9949125629179288  0.9725344634286279  1.0000
